30
Lattice="7.021682726569787 0.0 0.0 0.0098224316496665 7.034632862745205 0.0 0.0011388435607758 -0.006832919292832 6.523695439777092" Properties=species:S:1:pos:R:3 compound_reference="ICSD166447" pbc="T T T"
Ar       1.93371379       1.76752589       1.60809089 
Ar       5.09892997       5.26027350       4.91560447 
Ar       1.65661152       3.65448090       4.04012446 
Ar       5.37603225       3.37331903       2.48357090 
Ar       1.74736635       6.79613928       4.04860522 
Ar       5.28527742       0.23166074       2.47509013 
Ar       6.75118520       1.67811227       5.70823317 
Ar       0.28145873       5.34968740       0.81546192 
Ar       3.69281868       1.90414393       5.49817063 
Ar       3.33982522       5.12365614       1.02552479 
B       3.16725674       1.83662511       0.11220756 
B       3.86538716       5.19117456       6.41148773 
B       0.19861626       1.93800991       0.03000900 
B       6.83402766       5.08979003       6.49368658 
B       1.84072770       2.45465002       2.43203357 
B       5.19191647       4.57314991       4.09166179 
B       1.65093860       0.83060599       2.19065692 
B       5.38170543       6.19719394       4.33303858 
B       2.00433445       4.75175314       4.16472713 
B       5.02830958       2.27604679       2.35896823 
B       4.76703904       1.80044997       5.77020894 
B       2.26560486       5.22734970       0.75348661 
B       2.58856080       3.20225614       4.61420958 
B       4.44408337       3.82554352       1.90948564 
B       2.71548621       0.08963204       4.42241326 
B       4.31715796       6.93816765       2.10128211 
B       0.99339803       0.30754849       4.57245796 
B       6.03924627       6.72025130       1.95123713 
B       0.30898586       2.41400885       4.96583686 
B       6.72365844       4.61379108       1.55785836 
36
Lattice="7.723383877900712 0.0 0.0 -3.0301699718769033 7.104134603628202 0.0 -3.0301699718769033 -4.58677907794584 5.4249595535651665" Properties=species:S:1:pos:R:3 compound_reference="ICSD15907" pbc="T T T"
Ar      -0.55200549      -3.74660976       4.63291564 
Ar       2.21504933       6.26396554       0.79204411 
Ar       5.69580900       1.82934600       0.13019904 
Ar      -4.03276563       0.68800949       5.29476053 
Ar      -3.22964031       4.81474022       1.48101406 
Ar       4.89268438      -2.29738468       3.94394563 
Ar       0.41313330       3.80529024       1.80108657 
Ar       1.24991042      -1.28793458       3.62387300 
Ar      -1.15688538      -0.04430811       4.06871977 
Ar       2.81992921       2.56166366       1.35623992 
Ar       3.33810008       0.16609234       2.59313074 
Ar      -1.67505636       2.35126332       2.83182895 
B      -1.38916107      -3.22510569       4.39421742 
B       3.05220502       5.74246122       1.03074239 
B       5.54688155       0.85569447       0.37432222 
B      -3.88383724       1.66166090       5.05063752 
B      -2.42150249       4.99753046       0.89511838 
B       4.08454633      -2.48017468       4.52984137 
B      -0.45250677      -3.11667077       5.40868485 
B       2.11555063       5.63402654       0.01627488 
B       5.82756838       1.99371776       1.11211668 
B      -4.16452501       0.52363754       4.31284325 
B      -2.68924604       5.18848251       2.24050819 
B       4.35228987      -2.67112697       3.18445150 
B       3.14109793       1.03698030       2.14285918 
B      -1.47805373       1.48037513       3.28210074 
B      -0.34305369       3.26857404       2.17540885 
B       2.00609750      -0.75121861       3.24955084 
B      -0.27853248      -0.49176079       3.90054591 
B       1.94157625       3.00911630       1.52441378 
B       4.01704180      -0.20910122       1.95298559 
B      -2.35399772       2.72645648       3.47197422 
B      -0.08006224       4.33304750       1.10126675 
B       1.74310608      -1.81569196       4.32369282 
B      -1.76837039      -0.84131458       4.01989526 
B       3.43141399       3.35867025       1.40506455 
24
Lattice="4.755578137336523 0.0 0.0 0.0 8.237198935747259 0.0 0.0 0.0 7.740926142098812" Properties=species:S:1:pos:R:3 compound_reference="FHYYI2005" pbc="T T T"
Ar       0.00000000       5.47608998       0.48845247 
Ar       0.00000000       2.76110921       4.35891532 
Ar       2.37778907       1.35748976       0.48845247 
Ar       2.37778907       6.87970842       4.35891532 
Ar       2.37778907       6.79980798       7.25247390 
Ar       2.37778907       1.43739108       3.38201057 
Ar       0.00000000       2.68120826       7.25247390 
Ar       0.00000000       5.55599043       3.38201057 
B       0.00000000       5.46620525       1.51954385 
B       0.00000000       2.77099344       5.39000704 
B       2.37778907       1.34760552       1.51954385 
B       2.37778907       6.88959316       5.39000704 
B       0.00000000       4.41760972       0.14165895 
B       0.00000000       3.81958922       4.01212196 
B       2.37778907       0.29900987       0.14165895 
B       2.37778907       7.93818869       4.01212196 
B       3.21762420       6.38218190       7.59926726 
B       1.53795407       1.85501716       3.72880418 
B       3.21762420       1.85501716       3.72880418 
B       1.53795407       6.38218190       7.59926726 
B       0.83983500       2.26358219       7.59926726 
B       3.91574301       5.97361650       3.72880418 
B       0.83983500       5.97361650       3.72880418 
B       3.91574301       2.26358219       7.59926726 
24
Lattice="4.773867596841248 0.0 0.0 0.0 4.773867596841248 0.0 0.0 0.0 7.043967383936678" Properties=species:S:1:pos:R:3 compound_reference="ICSD44102" pbc="T T T"
Ar       0.00000000       1.19346690       0.76074847 
Ar       0.00000000       3.58040057       6.28321916 
Ar       2.38693380       3.58040057       4.28273216 
Ar       2.38693380       1.19346690       2.76123522 
Ar       0.00000000       3.58040057       2.52174044 
Ar       0.00000000       1.19346690       4.52222743 
Ar       2.38693380       1.19346690       6.04372389 
Ar       2.38693380       3.58040057       1.00024331 
B       0.00000000       1.99070276       1.36441651 
B       0.00000000       2.78316484       5.67955099 
B       2.38693380       2.78316484       4.88640032 
B       2.38693380       1.99070276       2.15756706 
B       3.97663162       3.58040057       3.12540836 
B       0.79723617       1.19346690       3.91855903 
B       3.18416978       1.19346690       6.64739205 
B       1.58969794       3.58040057       0.39657537 
B       3.18416978       3.58040057       0.39657537 
B       1.58969794       1.19346690       6.64739205 
B       3.97663162       1.19346690       3.91855903 
B       0.79723617       3.58040057       3.12540836 
B       2.38693380       4.37763656       4.88640032 
B       2.38693380       0.39623104       2.15756706 
B       0.00000000       0.39623104       1.36441651 
B       0.00000000       4.37763656       5.67955099 
36
Lattice="6.929719386122475 0.0 0.0 0.0 6.929719386122475 0.0 0.0 0.0 7.032686886204249" Properties=species:S:1:pos:R:3 compound_reference="ICSD49810" pbc="T T T"
Ar       0.75693320       2.08951825       2.01022324 
Ar       6.17278612       4.84020113       5.52656668 
Ar       1.37534144       4.22179271       3.76839521 
Ar       5.55437819       2.70792668       0.25205174 
Ar       2.70792668       5.55437819       6.78063537 
Ar       4.22179271       1.37534144       3.26429192 
Ar       2.08951825       0.75693320       5.02246365 
Ar       4.84020113       6.17278612       1.50612020 
Ar       2.72081585       2.72081585       0.00000000 
Ar       4.20890379       4.20890379       3.51634344 
Ar       0.74404391       6.18567505       1.75817172 
Ar       6.18567505       0.74404391       5.27451516 
B       6.06835548       2.30156777       1.50316654 
B       0.86136415       4.62815137       5.01950987 
B       1.16329192       2.60349555       3.26133815 
B       5.76642746       4.32622384       6.77768159 
B       4.32622384       5.76642746       0.25500518 
B       2.60349555       1.16329192       3.77134874 
B       2.30156777       6.06835548       5.52952046 
B       4.62815137       0.86136415       2.01317702 
B       0.78880996       1.09302458       2.08758278 
B       6.14090973       5.83669468       5.60392623 
B       2.37183524       4.25366960       3.84575450 
B       4.55788414       2.67604979       0.32941072 
B       2.67604979       4.55788414       6.70327583 
B       4.25366960       2.37183524       3.18693238 
B       1.09302458       0.78880996       4.94510410 
B       5.83669468       6.14090973       1.42876054 
B       2.08057909       2.49074904       0.74363633 
B       4.84914006       4.43897084       4.25997977 
B       0.97411077       5.54543878       2.50180805 
B       5.95560849       1.38428073       6.01815149 
B       1.38428073       5.95560849       1.01453533 
B       5.54543878       0.97411077       4.53087884 
B       2.49074904       2.08057909       6.28905056 
B       4.43897084       4.84914006       2.77270712 
84
Lattice="9.83353852651824 0.0 0.0 0.0 7.950932595458927 0.0 -3.6910709005942395 0.0 10.315964692798126" Properties=species:S:1:pos:R:3 compound_reference="ICSD155542" pbc="T T T"
Ar       1.56965954       4.47557984       2.59652856 
Ar       4.57280838       3.47535250       7.71943619 
Ar      -0.34396098       0.50011420       7.71943619 
Ar       6.48642855       7.45081880       2.59652856 
Ar       3.18230278       6.35438554       4.21819798 
Ar       2.96016514       1.59654731       6.09776652 
Ar      -1.95660399       2.37891949       6.09776652 
Ar       8.09907205       5.57201361       4.21819798 
Ar       0.14729719       6.42594351       0.97073230 
Ar       5.99517097       1.52498883       9.34523285 
Ar       1.07840107       2.45047747       9.34523285 
Ar       5.06406647       5.50045513       0.97073230 
Ar       0.72692104       3.21615223       5.14972944 
Ar       5.41554714       4.73478037       5.16623532 
Ar       0.49877736       7.19161878       5.16623532 
Ar       5.64368980       0.75931401       5.14972944 
Ar       2.06527712       3.20343085       0.03507428 
Ar       4.07719068       4.74750226      10.28089001 
Ar      -0.83957870       7.17889689      10.28089001 
Ar       6.98204600       0.77203545       0.03507428 
Ar       3.21573441       0.87698782       2.40980942 
Ar       2.92673328       7.07394459       7.90615533 
Ar      -1.99003574       4.85245405       7.90615533 
Ar       8.13250392       3.09847829       2.40980942 
Ar       0.24872550       0.90799654       2.72650937 
Ar       5.89374187       7.04293593       7.58945514 
Ar       0.97697293       4.88346271       7.58945514 
Ar       5.16549455       3.06746988       2.72650937 
B       2.27639649       5.11006447       3.10304212 
B       3.86607118       2.84086812       7.21292289 
B      -1.05069815       1.13459780       7.21292289 
B       7.19316576       6.81633416       3.10304212 
B       1.19939957       3.92935084       3.40323668 
B       4.94306797       4.02158175       6.91272758 
B       0.02629888       7.90481688       6.91272758 
B       6.11616897       0.04611548       3.40323668 
B       0.47920767       5.71433501       1.61238524 
B       5.66326022       2.23659734       8.70357952 
B       0.74649064       1.73886846       8.70357952 
B       5.39597672       6.21206364       1.61238524 
B       3.42648226       7.21547143       3.67042023 
B       2.71598541       0.73546103       6.64554402 
B      -2.20078385       3.24000514       6.64554402 
B       8.34325228       4.71092721       3.67042023 
B       4.02934052       5.96240427       4.57719362 
B       2.11312703       1.98852833       5.73877165 
B       7.02989642       1.98693797       5.73877165 
B      -0.88742881       5.96399488       4.57719362 
B       9.15166162       5.96956026       0.49310312 
B      -3.00919369       1.98137233       9.82286135 
B       1.90757532       1.99409397       9.82286135 
B       4.23489287       5.95683837       0.49310312 
B       1.96746838       3.61210852       1.02024887 
B       4.17499916       4.33882382       9.29571520 
B      -0.74177023       7.58757482       9.29571520 
B       6.88423803       0.36335772       1.02024887 
B       0.86001414       3.89913723       5.95953304 
B       5.28245335       4.05179562       4.35643172 
B       0.36568428       7.87460328       4.35643172 
B       5.77678359       0.07632906       5.95953304 
B      -0.21653474       2.82655663       5.29931135 
B       6.35900264       5.12437597       5.01665340 
B       1.44223313       6.80202267       5.01665340 
B       4.70023430       1.14890967       5.29931135 
B      -0.63477334       2.97126344      10.21693148 
B       6.77724152       4.97966890       0.09903310 
B       1.86047188       6.94672974       0.09903310 
B       4.28199542       1.00420286      10.21693148 
B       0.03384543       0.15424809       2.05184541 
B       6.10862229       7.79668436       8.26411973 
B       1.19185303       4.12971428       8.26411973 
B       4.95061465       3.82121832       2.05184541 
B       2.25320038       1.09245812       2.63469754 
B       3.88926730       6.85847409       7.68126748 
B      -1.02750196       5.06792455       7.68126748 
B       7.16996964       2.88300805       2.63469754 
B       3.21788161       0.39436628       1.51335196 
B       2.92458607       7.55656616       8.80261280 
B      -1.99218307       4.36983248       8.80261280 
B       8.13465163       3.58110011       1.51335196 
B      -0.43995771       1.65538415       2.62850782 
B       6.58242520       6.29554844       7.68745744 
B       1.66565581       5.63085020       7.68745744 
B       4.47681124       2.32008239       2.62850782 
