# generated using pymatgen
data_Zr3H32(C3O2)8
_symmetry_space_group_name_H-M   'P 1'
_cell_length_a   20.80020000
_cell_length_b   20.80020000
_cell_length_c   20.80020000
_cell_angle_alpha   90.00000000
_cell_angle_beta   90.00000000
_cell_angle_gamma   90.00000000
_symmetry_Int_Tables_number   1
_chemical_formula_structural   Zr3H32(C3O2)8
_chemical_formula_sum   'Zr24 H256 C192 O128'
_cell_volume   8999.17158650
_cell_formula_units_Z   8
loop_
 _symmetry_equiv_pos_site_id
 _symmetry_equiv_pos_as_xyz
  1  'x, y, z'
loop_
 _atom_site_type_symbol
 _atom_site_label
 _atom_site_symmetry_multiplicity
 _atom_site_fract_x
 _atom_site_fract_y
 _atom_site_fract_z
 _atom_site_occupancy
  H  H0  1  0.39697900  0.29409900  0.78992000  1
  C  C1  1  0.44060000  0.26580000  0.78380000  1
  H  H2  1  0.44254610  0.22856500  0.82055400  1
  H  H3  1  0.60302100  0.29409900  0.78992000  1
  C  C4  1  0.55940000  0.26580000  0.78380000  1
  H  H5  1  0.55745390  0.22856500  0.82055400  1
  C  C6  1  0.50000000  0.31000000  0.79000000  1
  H  H7  1  0.50000000  0.34171100  0.74834100  1
  O  O8  1  0.50000000  0.41500000  0.82500000  1
  C  C9  1  0.50000000  0.35300000  0.85000000  1
  O  O10  1  0.50000000  0.32800000  0.91200000  1
  H  H11  1  0.60302100  0.20590100  0.71008000  1
  C  C12  1  0.55940000  0.23420000  0.71620000  1
  H  H13  1  0.55745390  0.27143500  0.67944600  1
  H  H14  1  0.39697900  0.20590100  0.71008000  1
  C  C15  1  0.44060000  0.23420000  0.71620000  1
  H  H16  1  0.44254610  0.27143500  0.67944600  1
  C  C17  1  0.50000000  0.19000000  0.71000000  1
  H  H18  1  0.50000000  0.15828900  0.75165900  1
  O  O19  1  0.50000000  0.17200000  0.58800000  1
  O  O20  1  0.50000000  0.08500000  0.67500000  1
  C  C21  1  0.50000000  0.14700000  0.65000000  1
  H  H22  1  0.29409900  0.78992000  0.39697900  1
  C  C23  1  0.26580000  0.78380000  0.44060000  1
  H  H24  1  0.22856500  0.82055400  0.44254610  1
  H  H25  1  0.29409900  0.78992000  0.60302100  1
  C  C26  1  0.26580000  0.78380000  0.55940000  1
  H  H27  1  0.22856500  0.82055400  0.55745390  1
  C  C28  1  0.31000000  0.79000000  0.50000000  1
  H  H29  1  0.34171100  0.74834100  0.50000000  1
  O  O30  1  0.41500000  0.82500000  0.50000000  1
  C  C31  1  0.35300000  0.85000000  0.50000000  1
  O  O32  1  0.32800000  0.91200000  0.50000000  1
  H  H33  1  0.20590100  0.71008000  0.60302100  1
  C  C34  1  0.23420000  0.71620000  0.55940000  1
  H  H35  1  0.27143500  0.67944600  0.55745390  1
  H  H36  1  0.20590100  0.71008000  0.39697900  1
  C  C37  1  0.23420000  0.71620000  0.44060000  1
  H  H38  1  0.27143500  0.67944600  0.44254610  1
  C  C39  1  0.19000000  0.71000000  0.50000000  1
  H  H40  1  0.15828900  0.75165900  0.50000000  1
  O  O41  1  0.17200000  0.58800000  0.50000000  1
  O  O42  1  0.08500000  0.67500000  0.50000000  1
  C  C43  1  0.14700000  0.65000000  0.50000000  1
  H  H44  1  0.78992000  0.60302100  0.29409900  1
  C  C45  1  0.78380000  0.55940000  0.26580000  1
  H  H46  1  0.82055400  0.55745390  0.22856500  1
  H  H47  1  0.78992000  0.39697900  0.29409900  1
  C  C48  1  0.78380000  0.44060000  0.26580000  1
  H  H49  1  0.82055400  0.44254610  0.22856500  1
  C  C50  1  0.79000000  0.50000000  0.31000000  1
  H  H51  1  0.74834100  0.50000000  0.34171100  1
  O  O52  1  0.82500000  0.50000000  0.41500000  1
  C  C53  1  0.85000000  0.50000000  0.35300000  1
  O  O54  1  0.91200000  0.50000000  0.32800000  1
  H  H55  1  0.71008000  0.60302100  0.20590100  1
  C  C56  1  0.71620000  0.55940000  0.23420000  1
  H  H57  1  0.67944600  0.55745390  0.27143500  1
  H  H58  1  0.71008000  0.39697900  0.20590100  1
  C  C59  1  0.71620000  0.44060000  0.23420000  1
  H  H60  1  0.67944600  0.44254610  0.27143500  1
  C  C61  1  0.71000000  0.50000000  0.19000000  1
  H  H62  1  0.75165900  0.50000000  0.15828900  1
  O  O63  1  0.58800000  0.50000000  0.17200000  1
  O  O64  1  0.67500000  0.50000000  0.08500000  1
  C  C65  1  0.65000000  0.50000000  0.14700000  1
  H  H66  1  0.20590100  0.78992000  0.10302100  1
  C  C67  1  0.23420000  0.78380000  0.05940000  1
  H  H68  1  0.27143500  0.82055400  0.05745390  1
  H  H69  1  0.20590100  0.78992000  0.89697900  1
  C  C70  1  0.23420000  0.78380000  0.94060000  1
  H  H71  1  0.27143500  0.82055400  0.94254610  1
  C  C72  1  0.19000000  0.79000000  0.00000000  1
  H  H73  1  0.15828900  0.74834100  0.00000000  1
  O  O74  1  0.08500000  0.82500000  0.00000000  1
  C  C75  1  0.14700000  0.85000000  0.00000000  1
  O  O76  1  0.17200000  0.91200000  0.00000000  1
  H  H77  1  0.29409900  0.71008000  0.10302100  1
  C  C78  1  0.26580000  0.71620000  0.05940000  1
  H  H79  1  0.22856500  0.67944600  0.05745390  1
  H  H80  1  0.29409900  0.71008000  0.89697900  1
  C  C81  1  0.26580000  0.71620000  0.94060000  1
  H  H82  1  0.22856500  0.67944600  0.94254610  1
  C  C83  1  0.31000000  0.71000000  0.00000000  1
  H  H84  1  0.34171100  0.75165900  0.00000000  1
  O  O85  1  0.41500000  0.67500000  0.00000000  1
  C  C86  1  0.35300000  0.65000000  0.00000000  1
  O  O87  1  0.32800000  0.58800000  0.00000000  1
  H  H88  1  0.78992000  0.10302100  0.20590100  1
  C  C89  1  0.78380000  0.05940000  0.23420000  1
  H  H90  1  0.82055400  0.05745390  0.27143500  1
  H  H91  1  0.78992000  0.89697900  0.20590100  1
  C  C92  1  0.78380000  0.94060000  0.23420000  1
  H  H93  1  0.82055400  0.94254610  0.27143500  1
  C  C94  1  0.79000000  0.00000000  0.19000000  1
  H  H95  1  0.74834100  0.00000000  0.15828900  1
  O  O96  1  0.82500000  0.00000000  0.08500000  1
  C  C97  1  0.85000000  0.00000000  0.14700000  1
  O  O98  1  0.91200000  0.00000000  0.17200000  1
  H  H99  1  0.71008000  0.89697900  0.29409900  1
  C  C100  1  0.71620000  0.94060000  0.26580000  1
  H  H101  1  0.67944600  0.94254610  0.22856500  1
  H  H102  1  0.71008000  0.10302100  0.29409900  1
  C  C103  1  0.71620000  0.05940000  0.26580000  1
  H  H104  1  0.67944600  0.05745390  0.22856500  1
  C  C105  1  0.71000000  0.00000000  0.31000000  1
  H  H106  1  0.75165900  0.00000000  0.34171100  1
  O  O107  1  0.58800000  0.00000000  0.32800000  1
  C  C108  1  0.65000000  0.00000000  0.35300000  1
  O  O109  1  0.67500000  0.00000000  0.41500000  1
  H  H110  1  0.10302100  0.20590100  0.78992000  1
  C  C111  1  0.05940000  0.23420000  0.78380000  1
  H  H112  1  0.05745390  0.27143500  0.82055400  1
  H  H113  1  0.89697900  0.20590100  0.78992000  1
  C  C114  1  0.94060000  0.23420000  0.78380000  1
  H  H115  1  0.94254610  0.27143500  0.82055400  1
  C  C116  1  0.00000000  0.19000000  0.79000000  1
  H  H117  1  0.00000000  0.15828900  0.74834100  1
  O  O118  1  0.00000000  0.08500000  0.82500000  1
  C  C119  1  0.00000000  0.14700000  0.85000000  1
  O  O120  1  0.00000000  0.17200000  0.91200000  1
  H  H121  1  0.10302100  0.29409900  0.71008000  1
  C  C122  1  0.05940000  0.26580000  0.71620000  1
  H  H123  1  0.05745390  0.22856500  0.67944600  1
  H  H124  1  0.89697900  0.29409900  0.71008000  1
  C  C125  1  0.94060000  0.26580000  0.71620000  1
  H  H126  1  0.94254610  0.22856500  0.67944600  1
  C  C127  1  0.00000000  0.31000000  0.71000000  1
  H  H128  1  0.00000000  0.34171100  0.75165900  1
  O  O129  1  0.00000000  0.41500000  0.67500000  1
  C  C130  1  0.00000000  0.35300000  0.65000000  1
  O  O131  1  0.00000000  0.32800000  0.58800000  1
  H  H132  1  0.21008000  0.60302100  0.29409900  1
  C  C133  1  0.21620000  0.55940000  0.26580000  1
  H  H134  1  0.17944600  0.55745390  0.22856500  1
  H  H135  1  0.21008000  0.39697900  0.29409900  1
  C  C136  1  0.21620000  0.44060000  0.26580000  1
  H  H137  1  0.17944600  0.44254610  0.22856500  1
  C  C138  1  0.21000000  0.50000000  0.31000000  1
  H  H139  1  0.25165900  0.50000000  0.34171100  1
  O  O140  1  0.08800000  0.50000000  0.32800000  1
  C  C141  1  0.15000000  0.50000000  0.35300000  1
  O  O142  1  0.17500000  0.50000000  0.41500000  1
  H  H143  1  0.28992000  0.60302100  0.20590100  1
  C  C144  1  0.28380000  0.55940000  0.23420000  1
  H  H145  1  0.32055400  0.55745390  0.27143500  1
  H  H146  1  0.28992000  0.39697900  0.20590100  1
  C  C147  1  0.28380000  0.44060000  0.23420000  1
  H  H148  1  0.32055400  0.44254610  0.27143500  1
  C  C149  1  0.29000000  0.50000000  0.19000000  1
  H  H150  1  0.24834100  0.50000000  0.15828900  1
  O  O151  1  0.41200000  0.50000000  0.17200000  1
  O  O152  1  0.32500000  0.50000000  0.08500000  1
  C  C153  1  0.35000000  0.50000000  0.14700000  1
  H  H154  1  0.39697900  0.79409900  0.71008000  1
  C  C155  1  0.44060000  0.76580000  0.71620000  1
  H  H156  1  0.44254610  0.72856500  0.67944600  1
  H  H157  1  0.60302100  0.79409900  0.71008000  1
  C  C158  1  0.55940000  0.76580000  0.71620000  1
  H  H159  1  0.55745390  0.72856500  0.67944600  1
  C  C160  1  0.50000000  0.81000000  0.71000000  1
  H  H161  1  0.50000000  0.84171100  0.75165900  1
  O  O162  1  0.50000000  0.82800000  0.58800000  1
  C  C163  1  0.50000000  0.85300000  0.65000000  1
  O  O164  1  0.50000000  0.91500000  0.67500000  1
  H  H165  1  0.39697900  0.70590100  0.78992000  1
  C  C166  1  0.44060000  0.73420000  0.78380000  1
  H  H167  1  0.44254610  0.77143500  0.82055400  1
  H  H168  1  0.60302100  0.70590100  0.78992000  1
  C  C169  1  0.55940000  0.73420000  0.78380000  1
  H  H170  1  0.55745390  0.77143500  0.82055400  1
  C  C171  1  0.50000000  0.69000000  0.79000000  1
  H  H172  1  0.50000000  0.65828900  0.74834100  1
  O  O173  1  0.50000000  0.58500000  0.82500000  1
  C  C174  1  0.50000000  0.64700000  0.85000000  1
  O  O175  1  0.50000000  0.67200000  0.91200000  1
  H  H176  1  0.70590100  0.71008000  0.10302100  1
  C  C177  1  0.73420000  0.71620000  0.05940000  1
  H  H178  1  0.77143500  0.67944600  0.05745390  1
  H  H179  1  0.70590100  0.71008000  0.89697900  1
  C  C180  1  0.73420000  0.71620000  0.94060000  1
  H  H181  1  0.77143500  0.67944600  0.94254610  1
  C  C182  1  0.69000000  0.71000000  0.00000000  1
  H  H183  1  0.65828900  0.75165900  0.00000000  1
  O  O184  1  0.58500000  0.67500000  0.00000000  1
  C  C185  1  0.64700000  0.65000000  0.00000000  1
  O  O186  1  0.67200000  0.58800000  0.00000000  1
  H  H187  1  0.79409900  0.78992000  0.89697900  1
  C  C188  1  0.76580000  0.78380000  0.94060000  1
  H  H189  1  0.72856500  0.82055400  0.94254610  1
  H  H190  1  0.79409900  0.78992000  0.10302100  1
  C  C191  1  0.76580000  0.78380000  0.05940000  1
  H  H192  1  0.72856500  0.82055400  0.05745390  1
  C  C193  1  0.81000000  0.79000000  0.00000000  1
  H  H194  1  0.84171100  0.74834100  0.00000000  1
  O  O195  1  0.91500000  0.82500000  0.00000000  1
  C  C196  1  0.85300000  0.85000000  0.00000000  1
  O  O197  1  0.82800000  0.91200000  0.00000000  1
  H  H198  1  0.70590100  0.28992000  0.10302100  1
  C  C199  1  0.73420000  0.28380000  0.05940000  1
  H  H200  1  0.77143500  0.32055400  0.05745390  1
  H  H201  1  0.70590100  0.28992000  0.89697900  1
  C  C202  1  0.73420000  0.28380000  0.94060000  1
  H  H203  1  0.77143500  0.32055400  0.94254610  1
  C  C204  1  0.69000000  0.29000000  0.00000000  1
  H  H205  1  0.65828900  0.24834100  0.00000000  1
  O  O206  1  0.67200000  0.41200000  0.00000000  1
  O  O207  1  0.58500000  0.32500000  0.00000000  1
  C  C208  1  0.64700000  0.35000000  0.00000000  1
  H  H209  1  0.79409900  0.21008000  0.10302100  1
  C  C210  1  0.76580000  0.21620000  0.05940000  1
  H  H211  1  0.72856500  0.17944600  0.05745390  1
  H  H212  1  0.79409900  0.21008000  0.89697900  1
  C  C213  1  0.76580000  0.21620000  0.94060000  1
  H  H214  1  0.72856500  0.17944600  0.94254610  1
  C  C215  1  0.81000000  0.21000000  0.00000000  1
  H  H216  1  0.84171100  0.25165900  0.00000000  1
  O  O217  1  0.91500000  0.17500000  0.00000000  1
  C  C218  1  0.85300000  0.15000000  0.00000000  1
  O  O219  1  0.82800000  0.08800000  0.00000000  1
  H  H220  1  0.39697900  0.79409900  0.28992000  1
  C  C221  1  0.44060000  0.76580000  0.28380000  1
  H  H222  1  0.44254610  0.72856500  0.32055400  1
  H  H223  1  0.60302100  0.79409900  0.28992000  1
  C  C224  1  0.55940000  0.76580000  0.28380000  1
  H  H225  1  0.55745390  0.72856500  0.32055400  1
  C  C226  1  0.50000000  0.81000000  0.29000000  1
  H  H227  1  0.50000000  0.84171100  0.24834100  1
  O  O228  1  0.50000000  0.82800000  0.41200000  1
  C  C229  1  0.50000000  0.85300000  0.35000000  1
  O  O230  1  0.50000000  0.91500000  0.32500000  1
  H  H231  1  0.39697900  0.70590100  0.21008000  1
  C  C232  1  0.44060000  0.73420000  0.21620000  1
  H  H233  1  0.44254610  0.77143500  0.17944600  1
  H  H234  1  0.60302100  0.70590100  0.21008000  1
  C  C235  1  0.55940000  0.73420000  0.21620000  1
  H  H236  1  0.55745390  0.77143500  0.17944600  1
  C  C237  1  0.50000000  0.69000000  0.21000000  1
  H  H238  1  0.50000000  0.65828900  0.25165900  1
  O  O239  1  0.50000000  0.58500000  0.17500000  1
  C  C240  1  0.50000000  0.64700000  0.15000000  1
  O  O241  1  0.50000000  0.67200000  0.08800000  1
  O  O242  1  0.44120000  0.44120000  0.05880000  1
  O  O243  1  0.44120000  0.44120000  0.94120000  1
  O  O244  1  0.44120000  0.55880000  0.05880000  1
  Zr  Zr245  1  0.38320000  0.50000000  0.00000000  1
  O  O246  1  0.55880000  0.44120000  0.05880000  1
  Zr  Zr247  1  0.50000000  0.38320000  0.00000000  1
  O  O248  1  0.55880000  0.44120000  0.94120000  1
  O  O249  1  0.44120000  0.55880000  0.94120000  1
  O  O250  1  0.55880000  0.55880000  0.94120000  1
  Zr  Zr251  1  0.50000000  0.50000000  0.88320000  1
  Zr  Zr252  1  0.50000000  0.61680000  0.00000000  1
  Zr  Zr253  1  0.61680000  0.50000000  0.00000000  1
  Zr  Zr254  1  0.50000000  0.50000000  0.11680000  1
  O  O255  1  0.55880000  0.55880000  0.05880000  1
  H  H256  1  0.70590100  0.78992000  0.39697900  1
  C  C257  1  0.73420000  0.78380000  0.44060000  1
  H  H258  1  0.77143500  0.82055400  0.44254610  1
  H  H259  1  0.70590100  0.78992000  0.60302100  1
  C  C260  1  0.73420000  0.78380000  0.55940000  1
  H  H261  1  0.77143500  0.82055400  0.55745390  1
  C  C262  1  0.69000000  0.79000000  0.50000000  1
  H  H263  1  0.65828900  0.74834100  0.50000000  1
  O  O264  1  0.58500000  0.82500000  0.50000000  1
  C  C265  1  0.64700000  0.85000000  0.50000000  1
  O  O266  1  0.67200000  0.91200000  0.50000000  1
  H  H267  1  0.79409900  0.71008000  0.60302100  1
  C  C268  1  0.76580000  0.71620000  0.55940000  1
  H  H269  1  0.72856500  0.67944600  0.55745390  1
  H  H270  1  0.79409900  0.71008000  0.39697900  1
  C  C271  1  0.76580000  0.71620000  0.44060000  1
  H  H272  1  0.72856500  0.67944600  0.44254610  1
  C  C273  1  0.81000000  0.71000000  0.50000000  1
  H  H274  1  0.84171100  0.75165900  0.50000000  1
  O  O275  1  0.82800000  0.58800000  0.50000000  1
  C  C276  1  0.85300000  0.65000000  0.50000000  1
  O  O277  1  0.91500000  0.67500000  0.50000000  1
  H  H278  1  0.60302100  0.20590100  0.28992000  1
  C  C279  1  0.55940000  0.23420000  0.28380000  1
  H  H280  1  0.55745390  0.27143500  0.32055400  1
  H  H281  1  0.39697900  0.20590100  0.28992000  1
  C  C282  1  0.44060000  0.23420000  0.28380000  1
  H  H283  1  0.44254610  0.27143500  0.32055400  1
  C  C284  1  0.50000000  0.19000000  0.29000000  1
  H  H285  1  0.50000000  0.15828900  0.24834100  1
  O  O286  1  0.50000000  0.17200000  0.41200000  1
  O  O287  1  0.50000000  0.08500000  0.32500000  1
  C  C288  1  0.50000000  0.14700000  0.35000000  1
  H  H289  1  0.39697900  0.29409900  0.21008000  1
  C  C290  1  0.44060000  0.26580000  0.21620000  1
  H  H291  1  0.44254610  0.22856500  0.17944600  1
  H  H292  1  0.60302100  0.29409900  0.21008000  1
  C  C293  1  0.55940000  0.26580000  0.21620000  1
  H  H294  1  0.55745390  0.22856500  0.17944600  1
  C  C295  1  0.50000000  0.31000000  0.21000000  1
  H  H296  1  0.50000000  0.34171100  0.25165900  1
  O  O297  1  0.50000000  0.41500000  0.17500000  1
  C  C298  1  0.50000000  0.35300000  0.15000000  1
  O  O299  1  0.50000000  0.32800000  0.08800000  1
  H  H300  1  0.78992000  0.89697900  0.79409900  1
  C  C301  1  0.78380000  0.94060000  0.76580000  1
  H  H302  1  0.82055400  0.94254610  0.72856500  1
  H  H303  1  0.78992000  0.10302100  0.79409900  1
  C  C304  1  0.78380000  0.05940000  0.76580000  1
  H  H305  1  0.82055400  0.05745390  0.72856500  1
  C  C306  1  0.79000000  0.00000000  0.81000000  1
  H  H307  1  0.74834100  0.00000000  0.84171100  1
  O  O308  1  0.82500000  0.00000000  0.91500000  1
  C  C309  1  0.85000000  0.00000000  0.85300000  1
  O  O310  1  0.91200000  0.00000000  0.82800000  1
  H  H311  1  0.71008000  0.10302100  0.70590100  1
  C  C312  1  0.71620000  0.05940000  0.73420000  1
  H  H313  1  0.67944600  0.05745390  0.77143500  1
  H  H314  1  0.71008000  0.89697900  0.70590100  1
  C  C315  1  0.71620000  0.94060000  0.73420000  1
  H  H316  1  0.67944600  0.94254610  0.77143500  1
  C  C317  1  0.71000000  0.00000000  0.69000000  1
  H  H318  1  0.75165900  0.00000000  0.65828900  1
  O  O319  1  0.67500000  0.00000000  0.58500000  1
  C  C320  1  0.65000000  0.00000000  0.64700000  1
  O  O321  1  0.58800000  0.00000000  0.67200000  1
  H  H322  1  0.28992000  0.10302100  0.70590100  1
  C  C323  1  0.28380000  0.05940000  0.73420000  1
  H  H324  1  0.32055400  0.05745390  0.77143500  1
  H  H325  1  0.28992000  0.89697900  0.70590100  1
  C  C326  1  0.28380000  0.94060000  0.73420000  1
  H  H327  1  0.32055400  0.94254610  0.77143500  1
  C  C328  1  0.29000000  0.00000000  0.69000000  1
  H  H329  1  0.24834100  0.00000000  0.65828900  1
  O  O330  1  0.41200000  0.00000000  0.67200000  1
  O  O331  1  0.32500000  0.00000000  0.58500000  1
  C  C332  1  0.35000000  0.00000000  0.64700000  1
  H  H333  1  0.21008000  0.10302100  0.79409900  1
  C  C334  1  0.21620000  0.05940000  0.76580000  1
  H  H335  1  0.17944600  0.05745390  0.72856500  1
  H  H336  1  0.21008000  0.89697900  0.79409900  1
  C  C337  1  0.21620000  0.94060000  0.76580000  1
  H  H338  1  0.17944600  0.94254610  0.72856500  1
  C  C339  1  0.21000000  0.00000000  0.81000000  1
  H  H340  1  0.25165900  0.00000000  0.84171100  1
  O  O341  1  0.17500000  0.00000000  0.91500000  1
  C  C342  1  0.15000000  0.00000000  0.85300000  1
  O  O343  1  0.08800000  0.00000000  0.82800000  1
  H  H344  1  0.70590100  0.21008000  0.60302100  1
  C  C345  1  0.73420000  0.21620000  0.55940000  1
  H  H346  1  0.77143500  0.17944600  0.55745390  1
  H  H347  1  0.70590100  0.21008000  0.39697900  1
  C  C348  1  0.73420000  0.21620000  0.44060000  1
  H  H349  1  0.77143500  0.17944600  0.44254610  1
  C  C350  1  0.69000000  0.21000000  0.50000000  1
  H  H351  1  0.65828900  0.25165900  0.50000000  1
  O  O352  1  0.58500000  0.17500000  0.50000000  1
  C  C353  1  0.64700000  0.15000000  0.50000000  1
  O  O354  1  0.67200000  0.08800000  0.50000000  1
  H  H355  1  0.79409900  0.28992000  0.39697900  1
  C  C356  1  0.76580000  0.28380000  0.44060000  1
  H  H357  1  0.72856500  0.32055400  0.44254610  1
  H  H358  1  0.79409900  0.28992000  0.60302100  1
  C  C359  1  0.76580000  0.28380000  0.55940000  1
  H  H360  1  0.72856500  0.32055400  0.55745390  1
  C  C361  1  0.81000000  0.29000000  0.50000000  1
  H  H362  1  0.84171100  0.24834100  0.50000000  1
  O  O363  1  0.82800000  0.41200000  0.50000000  1
  C  C364  1  0.85300000  0.35000000  0.50000000  1
  O  O365  1  0.91500000  0.32500000  0.50000000  1
  O  O366  1  0.44120000  0.94120000  0.44120000  1
  O  O367  1  0.44120000  0.05880000  0.44120000  1
  Zr  Zr368  1  0.61680000  0.00000000  0.50000000  1
  Zr  Zr369  1  0.50000000  0.11680000  0.50000000  1
  O  O370  1  0.55880000  0.05880000  0.55880000  1
  Zr  Zr371  1  0.50000000  0.00000000  0.38320000  1
  O  O372  1  0.55880000  0.05880000  0.44120000  1
  O  O373  1  0.55880000  0.94120000  0.44120000  1
  O  O374  1  0.44120000  0.05880000  0.55880000  1
  Zr  Zr375  1  0.38320000  0.00000000  0.50000000  1
  Zr  Zr376  1  0.50000000  0.00000000  0.61680000  1
  O  O377  1  0.44120000  0.94120000  0.55880000  1
  O  O378  1  0.55880000  0.94120000  0.55880000  1
  Zr  Zr379  1  0.50000000  0.88320000  0.50000000  1
  H  H380  1  0.10302100  0.20590100  0.21008000  1
  C  C381  1  0.05940000  0.23420000  0.21620000  1
  H  H382  1  0.05745390  0.27143500  0.17944600  1
  H  H383  1  0.89697900  0.20590100  0.21008000  1
  C  C384  1  0.94060000  0.23420000  0.21620000  1
  H  H385  1  0.94254610  0.27143500  0.17944600  1
  C  C386  1  0.00000000  0.19000000  0.21000000  1
  H  H387  1  0.00000000  0.15828900  0.25165900  1
  O  O388  1  0.00000000  0.17200000  0.08800000  1
  O  O389  1  0.00000000  0.08500000  0.17500000  1
  C  C390  1  0.00000000  0.14700000  0.15000000  1
  H  H391  1  0.10302100  0.29409900  0.28992000  1
  C  C392  1  0.05940000  0.26580000  0.28380000  1
  H  H393  1  0.05745390  0.22856500  0.32055400  1
  H  H394  1  0.89697900  0.29409900  0.28992000  1
  C  C395  1  0.94060000  0.26580000  0.28380000  1
  H  H396  1  0.94254610  0.22856500  0.32055400  1
  C  C397  1  0.00000000  0.31000000  0.29000000  1
  H  H398  1  0.00000000  0.34171100  0.24834100  1
  O  O399  1  0.00000000  0.32800000  0.41200000  1
  C  C400  1  0.00000000  0.35300000  0.35000000  1
  O  O401  1  0.00000000  0.41500000  0.32500000  1
  H  H402  1  0.29409900  0.28992000  0.10302100  1
  C  C403  1  0.26580000  0.28380000  0.05940000  1
  H  H404  1  0.22856500  0.32055400  0.05745390  1
  H  H405  1  0.29409900  0.28992000  0.89697900  1
  C  C406  1  0.26580000  0.28380000  0.94060000  1
  H  H407  1  0.22856500  0.32055400  0.94254610  1
  C  C408  1  0.31000000  0.29000000  0.00000000  1
  H  H409  1  0.34171100  0.24834100  0.00000000  1
  O  O410  1  0.32800000  0.41200000  0.00000000  1
  C  C411  1  0.35300000  0.35000000  0.00000000  1
  O  O412  1  0.41500000  0.32500000  0.00000000  1
  H  H413  1  0.20590100  0.21008000  0.10302100  1
  C  C414  1  0.23420000  0.21620000  0.05940000  1
  H  H415  1  0.27143500  0.17944600  0.05745390  1
  H  H416  1  0.20590100  0.21008000  0.89697900  1
  C  C417  1  0.23420000  0.21620000  0.94060000  1
  H  H418  1  0.27143500  0.17944600  0.94254610  1
  C  C419  1  0.19000000  0.21000000  0.00000000  1
  H  H420  1  0.15828900  0.25165900  0.00000000  1
  O  O421  1  0.17200000  0.08800000  0.00000000  1
  O  O422  1  0.08500000  0.17500000  0.00000000  1
  C  C423  1  0.14700000  0.15000000  0.00000000  1
  H  H424  1  0.21008000  0.89697900  0.20590100  1
  C  C425  1  0.21620000  0.94060000  0.23420000  1
  H  H426  1  0.17944600  0.94254610  0.27143500  1
  H  H427  1  0.21008000  0.10302100  0.20590100  1
  C  C428  1  0.21620000  0.05940000  0.23420000  1
  H  H429  1  0.17944600  0.05745390  0.27143500  1
  C  C430  1  0.21000000  0.00000000  0.19000000  1
  H  H431  1  0.25165900  0.00000000  0.15828900  1
  O  O432  1  0.08800000  0.00000000  0.17200000  1
  O  O433  1  0.17500000  0.00000000  0.08500000  1
  C  C434  1  0.15000000  0.00000000  0.14700000  1
  H  H435  1  0.28992000  0.10302100  0.29409900  1
  C  C436  1  0.28380000  0.05940000  0.26580000  1
  H  H437  1  0.32055400  0.05745390  0.22856500  1
  H  H438  1  0.28992000  0.89697900  0.29409900  1
  C  C439  1  0.28380000  0.94060000  0.26580000  1
  H  H440  1  0.32055400  0.94254610  0.22856500  1
  C  C441  1  0.29000000  0.00000000  0.31000000  1
  H  H442  1  0.24834100  0.00000000  0.34171100  1
  O  O443  1  0.41200000  0.00000000  0.32800000  1
  C  C444  1  0.35000000  0.00000000  0.35300000  1
  O  O445  1  0.32500000  0.00000000  0.41500000  1
  O  O446  1  0.94120000  0.94120000  0.05880000  1
  O  O447  1  0.05880000  0.94120000  0.94120000  1
  O  O448  1  0.05880000  0.05880000  0.94120000  1
  Zr  Zr449  1  0.00000000  0.00000000  0.88320000  1
  O  O450  1  0.94120000  0.05880000  0.94120000  1
  O  O451  1  0.05880000  0.94120000  0.05880000  1
  O  O452  1  0.94120000  0.05880000  0.05880000  1
  Zr  Zr453  1  0.88320000  0.00000000  0.00000000  1
  O  O454  1  0.94120000  0.94120000  0.94120000  1
  Zr  Zr455  1  0.00000000  0.88320000  0.00000000  1
  Zr  Zr456  1  0.00000000  0.11680000  0.00000000  1
  Zr  Zr457  1  0.11680000  0.00000000  0.00000000  1
  Zr  Zr458  1  0.00000000  0.00000000  0.11680000  1
  O  O459  1  0.05880000  0.05880000  0.05880000  1
  H  H460  1  0.29409900  0.21008000  0.60302100  1
  C  C461  1  0.26580000  0.21620000  0.55940000  1
  H  H462  1  0.22856500  0.17944600  0.55745390  1
  H  H463  1  0.29409900  0.21008000  0.39697900  1
  C  C464  1  0.26580000  0.21620000  0.44060000  1
  H  H465  1  0.22856500  0.17944600  0.44254610  1
  C  C466  1  0.31000000  0.21000000  0.50000000  1
  H  H467  1  0.34171100  0.25165900  0.50000000  1
  O  O468  1  0.41500000  0.17500000  0.50000000  1
  C  C469  1  0.35300000  0.15000000  0.50000000  1
  O  O470  1  0.32800000  0.08800000  0.50000000  1
  H  H471  1  0.20590100  0.28992000  0.39697900  1
  C  C472  1  0.23420000  0.28380000  0.44060000  1
  H  H473  1  0.27143500  0.32055400  0.44254610  1
  H  H474  1  0.20590100  0.28992000  0.60302100  1
  C  C475  1  0.23420000  0.28380000  0.55940000  1
  H  H476  1  0.27143500  0.32055400  0.55745390  1
  C  C477  1  0.19000000  0.29000000  0.50000000  1
  H  H478  1  0.15828900  0.24834100  0.50000000  1
  O  O479  1  0.17200000  0.41200000  0.50000000  1
  O  O480  1  0.08500000  0.32500000  0.50000000  1
  C  C481  1  0.14700000  0.35000000  0.50000000  1
  H  H482  1  0.71008000  0.60302100  0.79409900  1
  C  C483  1  0.71620000  0.55940000  0.76580000  1
  H  H484  1  0.67944600  0.55745390  0.72856500  1
  H  H485  1  0.71008000  0.39697900  0.79409900  1
  C  C486  1  0.71620000  0.44060000  0.76580000  1
  H  H487  1  0.67944600  0.44254610  0.72856500  1
  C  C488  1  0.71000000  0.50000000  0.81000000  1
  H  H489  1  0.75165900  0.50000000  0.84171100  1
  O  O490  1  0.58800000  0.50000000  0.82800000  1
  C  C491  1  0.65000000  0.50000000  0.85300000  1
  O  O492  1  0.67500000  0.50000000  0.91500000  1
  H  H493  1  0.78992000  0.60302100  0.70590100  1
  C  C494  1  0.78380000  0.55940000  0.73420000  1
  H  H495  1  0.82055400  0.55745390  0.77143500  1
  H  H496  1  0.78992000  0.39697900  0.70590100  1
  C  C497  1  0.78380000  0.44060000  0.73420000  1
  H  H498  1  0.82055400  0.44254610  0.77143500  1
  C  C499  1  0.79000000  0.50000000  0.69000000  1
  H  H500  1  0.74834100  0.50000000  0.65828900  1
  O  O501  1  0.82500000  0.50000000  0.58500000  1
  C  C502  1  0.85000000  0.50000000  0.64700000  1
  O  O503  1  0.91200000  0.50000000  0.67200000  1
  H  H504  1  0.10302100  0.79409900  0.78992000  1
  C  C505  1  0.05940000  0.76580000  0.78380000  1
  H  H506  1  0.05745390  0.72856500  0.82055400  1
  H  H507  1  0.89697900  0.79409900  0.78992000  1
  C  C508  1  0.94060000  0.76580000  0.78380000  1
  H  H509  1  0.94254610  0.72856500  0.82055400  1
  C  C510  1  0.00000000  0.81000000  0.79000000  1
  H  H511  1  0.00000000  0.84171100  0.74834100  1
  O  O512  1  0.00000000  0.91500000  0.82500000  1
  C  C513  1  0.00000000  0.85300000  0.85000000  1
  O  O514  1  0.00000000  0.82800000  0.91200000  1
  H  H515  1  0.10302100  0.70590100  0.71008000  1
  C  C516  1  0.05940000  0.73420000  0.71620000  1
  H  H517  1  0.05745390  0.77143500  0.67944600  1
  H  H518  1  0.89697900  0.70590100  0.71008000  1
  C  C519  1  0.94060000  0.73420000  0.71620000  1
  H  H520  1  0.94254610  0.77143500  0.67944600  1
  C  C521  1  0.00000000  0.69000000  0.71000000  1
  H  H522  1  0.00000000  0.65828900  0.75165900  1
  O  O523  1  0.00000000  0.58500000  0.67500000  1
  C  C524  1  0.00000000  0.64700000  0.65000000  1
  O  O525  1  0.00000000  0.67200000  0.58800000  1
  H  H526  1  0.10302100  0.70590100  0.28992000  1
  C  C527  1  0.05940000  0.73420000  0.28380000  1
  H  H528  1  0.05745390  0.77143500  0.32055400  1
  H  H529  1  0.89697900  0.70590100  0.28992000  1
  C  C530  1  0.94060000  0.73420000  0.28380000  1
  H  H531  1  0.94254610  0.77143500  0.32055400  1
  C  C532  1  0.00000000  0.69000000  0.29000000  1
  H  H533  1  0.00000000  0.65828900  0.24834100  1
  O  O534  1  0.00000000  0.67200000  0.41200000  1
  O  O535  1  0.00000000  0.58500000  0.32500000  1
  C  C536  1  0.00000000  0.64700000  0.35000000  1
  H  H537  1  0.10302100  0.79409900  0.21008000  1
  C  C538  1  0.05940000  0.76580000  0.21620000  1
  H  H539  1  0.05745390  0.72856500  0.17944600  1
  H  H540  1  0.89697900  0.79409900  0.21008000  1
  C  C541  1  0.94060000  0.76580000  0.21620000  1
  H  H542  1  0.94254610  0.72856500  0.17944600  1
  C  C543  1  0.00000000  0.81000000  0.21000000  1
  H  H544  1  0.00000000  0.84171100  0.25165900  1
  O  O545  1  0.00000000  0.91500000  0.17500000  1
  C  C546  1  0.00000000  0.85300000  0.15000000  1
  O  O547  1  0.00000000  0.82800000  0.08800000  1
  H  H548  1  0.28992000  0.39697900  0.79409900  1
  C  C549  1  0.28380000  0.44060000  0.76580000  1
  H  H550  1  0.32055400  0.44254610  0.72856500  1
  H  H551  1  0.28992000  0.60302100  0.79409900  1
  C  C552  1  0.28380000  0.55940000  0.76580000  1
  H  H553  1  0.32055400  0.55745390  0.72856500  1
  C  C554  1  0.29000000  0.50000000  0.81000000  1
  H  H555  1  0.24834100  0.50000000  0.84171100  1
  O  O556  1  0.41200000  0.50000000  0.82800000  1
  C  C557  1  0.35000000  0.50000000  0.85300000  1
  O  O558  1  0.32500000  0.50000000  0.91500000  1
  H  H559  1  0.21008000  0.60302100  0.70590100  1
  C  C560  1  0.21620000  0.55940000  0.73420000  1
  H  H561  1  0.17944600  0.55745390  0.77143500  1
  H  H562  1  0.21008000  0.39697900  0.70590100  1
  C  C563  1  0.21620000  0.44060000  0.73420000  1
  H  H564  1  0.17944600  0.44254610  0.77143500  1
  C  C565  1  0.21000000  0.50000000  0.69000000  1
  H  H566  1  0.25165900  0.50000000  0.65828900  1
  O  O567  1  0.17500000  0.50000000  0.58500000  1
  C  C568  1  0.15000000  0.50000000  0.64700000  1
  O  O569  1  0.08800000  0.50000000  0.67200000  1
  O  O570  1  0.05880000  0.44120000  0.44120000  1
  O  O571  1  0.94120000  0.44120000  0.44120000  1
  Zr  Zr572  1  0.00000000  0.38320000  0.50000000  1
  O  O573  1  0.05880000  0.44120000  0.55880000  1
  Zr  Zr574  1  0.00000000  0.61680000  0.50000000  1
  Zr  Zr575  1  0.11680000  0.50000000  0.50000000  1
  O  O576  1  0.05880000  0.55880000  0.55880000  1
  Zr  Zr577  1  0.00000000  0.50000000  0.61680000  1
  O  O578  1  0.94120000  0.44120000  0.55880000  1
  Zr  Zr579  1  0.88320000  0.50000000  0.50000000  1
  O  O580  1  0.94120000  0.55880000  0.55880000  1
  O  O581  1  0.94120000  0.55880000  0.44120000  1
  Zr  Zr582  1  0.00000000  0.50000000  0.38320000  1
  O  O583  1  0.05880000  0.55880000  0.44120000  1
  H  H584  1  0.41344304  0.41344304  -0.08655696  1
  H  H585  1  0.58655696  0.41344304  0.08655696  1
  H  H586  1  0.41344304  0.58655696  0.08655696  1
  H  H587  1  0.58655696  0.58655696  -0.08655696  1
  H  H588  1  0.41344304  0.91344304  0.41344304  1
  H  H589  1  0.58655696  0.91344304  0.58655696  1
  H  H590  1  0.41344304  1.08655696  0.58655696  1
  H  H591  1  0.58655696  1.08655696  0.41344304  1
  H  H592  1  0.91344304  0.91344304  -0.08655696  1
  H  H593  1  1.08655696  0.91344304  0.08655696  1
  H  H594  1  0.91344304  1.08655696  0.08655696  1
  H  H595  1  1.08655696  1.08655696  -0.08655696  1
  H  H596  1  -0.08655696  0.41344304  0.41344304  1
  H  H597  1  0.08655696  0.41344304  0.58655696  1
  H  H598  1  -0.08655696  0.58655696  0.58655696  1
  H  H599  1  0.08655696  0.58655696  0.41344304  1
