data_ZIF-4-cg-from-lammps
_chemical_formula_sum                               'AB4C6D6'
_cell_length_a			15.42300
_cell_length_b			15.40400
_cell_length_c			18.43800
_cell_angle_alpha		90.00000
_cell_angle_beta		90.00000
_cell_angle_gamma		90.00000
_cell_volume			4380.42430
_cell_formula_units_Z		16
_symmetry_space_group_name_H-M	'P 1'
_symmetry_Int_Tables_number	1
loop_
_symmetry_equiv_pos_site_id
_symmetry_equiv_pos_as_xyz
1 x,y,z
loop_
_atom_site_label
_atom_site_type_symbol
_atom_site_symmetry_multiplicity
_atom_site_fract_x
_atom_site_fract_y
_atom_site_fract_z
_atom_site_occupancy
    Si-1       Si 1   0.9903700000   0.1639800000   0.1862600000  1
    Si-2       Si 1   0.2978500000   0.1394900000   0.5917000000  1
    Si-3       Si 1   0.7978500000   0.3605100000   0.4083000000  1
    Si-4       Si 1   0.0096300000   0.8360200000   0.8137400000  1
    Si-5       Si 1   0.2021500000   0.6394900000   0.5917000000  1
    Si-6       Si 1   0.2978500000   0.3605100000   0.0917000000  1
    Si-7       Si 1   0.4903600000   0.3360200000   0.8137400000  1
    Si-8       Si 1   0.4903600000   0.1639800000   0.3137400000  1
    Si-9       Si 1   0.2021500000   0.8605100000   0.0917000000  1
   Si-10       Si 1   0.5096300000   0.8360200000   0.6862600000  1
   Si-11       Si 1   0.0096300000   0.6639800000   0.3137400000  1
   Si-12       Si 1   0.7978500000   0.1394900000   0.9083000000  1
   Si-13       Si 1   0.9903700000   0.3360200000   0.6862600000  1
   Si-14       Si 1   0.5096300000   0.6639800000   0.1862600000  1
   Si-15       Si 1   0.7021500000   0.6394900000   0.9083000000  1
   Si-16       Si 1   0.7021500000   0.8605100000   0.4083000000  1
     O-1        O 1   0.8258700000   0.0995487500   0.0832700000  1
     O-2        O 1   0.6741300000   0.5995500000   0.0832675000  1
     O-3        O 1   0.3261812500   0.0990200000   0.4168475000  1
     O-4        O 1   0.1741300000   0.5995500000   0.4167312500  1
     O-5        O 1   0.4059912500   0.6723100000   0.6185012500  1
     O-6        O 1   0.1382887500   0.4833462500   0.6956012500  1
     O-7        O 1   0.9031462500   0.3035162500   0.8418337500  1
     O-8        O 1   0.0940600000   0.1720575000   0.6189787500  1
     O-9        O 1   0.3617125000   0.9833450000   0.6956025000  1
    O-10        O 1   0.5968537500   0.8035162500   0.8418337500  1
    O-11        O 1   0.9059412500   0.6720562500   0.8810212500  1
    O-12        O 1   0.6378825000   0.4837387500   0.8041687500  1
    O-13        O 1   0.4026087500   0.3037612500   0.6583425000  1
    O-14        O 1   0.5940600000   0.1720562500   0.8810212500  1
    O-15        O 1   0.8621200000   0.9837362500   0.8041675000  1
    O-16        O 1   0.0973900000   0.8037587500   0.6583412500  1
    O-17        O 1   0.1741300000   0.9004537500   0.9167300000  1
    O-18        O 1   0.6378800000   0.0162612500   0.3041687500  1
    O-19        O 1   0.4026075000   0.1962400000   0.1583425000  1
    O-20        O 1   0.8258687500   0.4004537500   0.5832687500  1
    O-21        O 1   0.3261812500   0.4009800000   0.9168487500  1
    O-22        O 1   0.6738187500   0.9009800000   0.5831500000  1
    O-23        O 1   0.4059412500   0.8279450000   0.1189775000  1
    O-24        O 1   0.1378825000   0.0162625000   0.1958312500  1
    O-25        O 1   0.9031475000   0.1964862500   0.3418337500  1
    O-26        O 1   0.0940100000   0.3276912500   0.1185012500  1
    O-27        O 1   0.3617125000   0.5166537500   0.1956025000  1
    O-28        O 1   0.5968525000   0.6964862500   0.3418337500  1
    O-29        O 1   0.5940075000   0.3276912500   0.3815000000  1
    O-30        O 1   0.8621200000   0.5162637500   0.3041687500  1
    O-31        O 1   0.0968537500   0.6964837500   0.1581662500  1
    O-32        O 1   0.9059900000   0.8276912500   0.3815000000  1
#End of data_ZIF-4-cg-from-lammps

