# generated using pymatgen
data_Ce2ZnSiH6(C3N2)2
_symmetry_space_group_name_H-M   'P 1'
_cell_length_a   15.42300000
_cell_length_b   15.40400000
_cell_length_c   18.43800000
_cell_angle_alpha   90.00000000
_cell_angle_beta   90.00000000
_cell_angle_gamma   90.00000000
_symmetry_Int_Tables_number   1
_chemical_formula_structural   Ce2ZnSiH6(C3N2)2
_chemical_formula_sum   'Ce32 Zn16 Si16 H96 C96 N64'
_cell_volume   4380.42429670
_cell_formula_units_Z   16
loop_
 _symmetry_equiv_pos_site_id
 _symmetry_equiv_pos_as_xyz
  1  'x, y, z'
loop_
 _atom_site_type_symbol
 _atom_site_label
 _atom_site_symmetry_multiplicity
 _atom_site_fract_x
 _atom_site_fract_y
 _atom_site_fract_z
 _atom_site_occupancy
  Zn  Zn0  1  0.99037000  0.16398000  0.18626000  1
  Zn  Zn1  1  0.29785000  0.13949000  0.59170000  1
  Zn  Zn2  1  0.79785000  0.36051000  0.40830000  1
  Zn  Zn3  1  0.00963000  0.83602000  0.81374000  1
  Zn  Zn4  1  0.20215000  0.63949000  0.59170000  1
  Zn  Zn5  1  0.29785000  0.36051000  0.09170000  1
  Zn  Zn6  1  0.49036000  0.33602000  0.81374000  1
  Zn  Zn7  1  0.49036000  0.16398000  0.31374000  1
  Zn  Zn8  1  0.20215000  0.86051000  0.09170000  1
  Zn  Zn9  1  0.50963000  0.83602000  0.68626000  1
  Zn  Zn10  1  0.00963000  0.66398000  0.31374000  1
  Zn  Zn11  1  0.79785000  0.13949000  0.90830000  1
  Zn  Zn12  1  0.99037000  0.33602000  0.68626000  1
  Zn  Zn13  1  0.50963000  0.66398000  0.18626000  1
  Zn  Zn14  1  0.70215000  0.63949000  0.90830000  1
  Zn  Zn15  1  0.70215000  0.86051000  0.40830000  1
  C  C16  1  0.76763000  0.06880000  0.06951000  1
  C  C17  1  0.88569000  0.14529000  0.05159000  1
  N  N18  1  0.88766000  0.12321000  0.12292000  1
  C  C19  1  0.81286000  0.07452000  0.13484000  1
  H  H20  1  0.93567000  0.18524000  0.02502000  1
  H  H21  1  0.79734000  0.04848000  0.18875000  1
  N  N22  1  0.81434000  0.11394000  0.01703000  1
  H  H23  1  0.70577000  0.03691000  0.05650000  1
  N  N24  1  0.61234000  0.62321000  0.12292000  1
  N  N25  1  0.68566000  0.61394000  0.01703000  1
  H  H26  1  0.79423000  0.53691000  0.05650000  1
  C  C27  1  0.68714000  0.57452000  0.13483000  1
  C  C28  1  0.73237000  0.56881000  0.06951000  1
  H  H29  1  0.56433000  0.68524000  0.02502000  1
  C  C30  1  0.61431000  0.64529000  0.05159000  1
  H  H31  1  0.70266000  0.54848000  0.18874000  1
  H  H32  1  0.43682000  0.18331000  0.47541000  1
  N  N33  1  0.38766000  0.12320000  0.37708000  1
  C  C34  1  0.38569000  0.14529000  0.44841000  1
  H  H35  1  0.29799000  0.04738000  0.31150000  1
  C  C36  1  0.31282000  0.07458000  0.36515000  1
  N  N37  1  0.31438000  0.11386000  0.48299000  1
  H  H38  1  0.20647000  0.03572000  0.44376000  1
  C  C39  1  0.26762000  0.06882000  0.43048000  1
  N  N40  1  0.18565000  0.61392000  0.48298000  1
  H  H41  1  0.29421000  0.53688000  0.44350000  1
  C  C42  1  0.23236000  0.56879000  0.43049000  1
  C  C43  1  0.18715000  0.57454000  0.36516000  1
  H  H44  1  0.06433000  0.68524000  0.47498000  1
  C  C45  1  0.11431000  0.64529000  0.44841000  1
  H  H46  1  0.20268000  0.54851000  0.31125000  1
  N  N47  1  0.11235000  0.62323000  0.37708000  1
  H  H48  1  0.31493000  0.79143000  0.65450000  1
  H  H49  1  0.54117000  0.63972000  0.61629000  1
  N  N50  1  0.32617000  0.66136000  0.60885000  1
  C  C51  1  0.35664000  0.73649000  0.63857000  1
  N  N52  1  0.44445000  0.73689000  0.64521000  1
  C  C53  1  0.47204000  0.65689000  0.61807000  1
  H  H54  1  0.39345000  0.54540000  0.57088000  1
  C  C55  1  0.39908000  0.61030000  0.59564000  1
  H  H56  1  0.14311000  0.40573000  0.79214000  1
  N  N57  1  0.07929000  0.42759000  0.68866000  1
  N  N58  1  0.15989000  0.54304000  0.65272000  1
  H  H59  1  0.24378000  0.54990000  0.74726000  1
  C  C60  1  0.13973000  0.44539000  0.74265000  1
  C  C61  1  0.18945000  0.51660000  0.72048000  1
  H  H62  1  0.05718000  0.49071000  0.58493000  1
  C  C63  1  0.09388000  0.48781000  0.63597000  1
  C  C64  1  0.93065000  0.36585000  0.84213000  1
  H  H65  1  0.88850000  0.18319000  0.75976000  1
  N  N66  1  0.86245000  0.23877000  0.86580000  1
  H  H67  1  0.95996000  0.43111000  0.84396000  1
  C  C68  1  0.89456000  0.23868000  0.79719000  1
  H  H69  1  0.86763000  0.33706000  0.95063000  1
  C  C70  1  0.88504000  0.31939000  0.89481000  1
  N  N71  1  0.93638000  0.31408000  0.78039000  1
  N  N72  1  0.05556000  0.23685000  0.64527000  1
  N  N73  1  0.17383000  0.16135000  0.60886000  1
  H  H74  1  0.10665000  0.04487000  0.57188000  1
  H  H75  1  0.95895000  0.13916000  0.61735000  1
  C  C76  1  0.14336000  0.23649000  0.63857000  1
  C  C77  1  0.02796000  0.15690000  0.61805000  1
  C  C78  1  0.10092000  0.11033000  0.59560000  1
  H  H79  1  0.18525000  0.29051000  0.65625000  1
  C  C80  1  0.40612000  0.98781000  0.63597000  1
  C  C81  1  0.31056000  0.01661000  0.72049000  1
  H  H82  1  0.44282000  0.99071000  0.58493000  1
  N  N83  1  0.34012000  0.04305000  0.65273000  1
  H  H84  1  0.25624000  0.04991000  0.74727000  1
  H  H85  1  0.35687000  0.90571000  0.79213000  1
  N  N86  1  0.42070000  0.92758000  0.68865000  1
  C  C87  1  0.36027000  0.94538000  0.74265000  1
  H  H88  1  0.61150000  0.68319000  0.75976000  1
  C  C89  1  0.60544000  0.73868000  0.79719000  1
  N  N90  1  0.63755000  0.73877000  0.86580000  1
  C  C91  1  0.61496000  0.81939000  0.89481000  1
  H  H92  1  0.54004000  0.93111000  0.84396000  1
  H  H93  1  0.63237000  0.83706000  0.95063000  1
  N  N94  1  0.56362000  0.81408000  0.78039000  1
  C  C95  1  0.56935000  0.86585000  0.84213000  1
  N  N96  1  0.94445000  0.73687000  0.85477000  1
  C  C97  1  0.97204000  0.65691000  0.88197000  1
  N  N98  1  0.82617000  0.66133000  0.89111000  1
  H  H99  1  0.89334000  0.54484000  0.92807000  1
  C  C100  1  0.89908000  0.61032000  0.90438000  1
  H  H101  1  0.04106000  0.63918000  0.88269000  1
  H  H102  1  0.81475000  0.79051000  0.84375000  1
  C  C103  1  0.85664000  0.73649000  0.86143000  1
  C  C104  1  0.68948000  0.51658000  0.77953000  1
  H  H105  1  0.55569000  0.49214000  0.91422000  1
  C  C106  1  0.59388000  0.48781000  0.86403000  1
  H  H107  1  0.64224000  0.40657000  0.70737000  1
  N  N108  1  0.57926000  0.42762000  0.81133000  1
  C  C109  1  0.63976000  0.44536000  0.75737000  1
  N  N110  1  0.65986000  0.54307000  0.84726000  1
  H  H111  1  0.74289000  0.55076000  0.75224000  1
  H  H112  1  0.36643000  0.33760000  0.54976000  1
  N  N113  1  0.36239000  0.23880000  0.63422000  1
  C  C114  1  0.38507000  0.31938000  0.60518000  1
  H  H115  1  0.45882000  0.43163000  0.65641000  1
  N  N116  1  0.43637000  0.31409000  0.71962000  1
  C  C117  1  0.43070000  0.36582000  0.65786000  1
  H  H118  1  0.38653000  0.18409000  0.74088000  1
  C  C119  1  0.39456000  0.23868000  0.70281000  1
  N  N120  1  0.67384000  0.16133000  0.89111000  1
  H  H121  1  0.60666000  0.04484000  0.92807000  1
  H  H122  1  0.68525000  0.29051000  0.84375000  1
  H  H123  1  0.45894000  0.13918000  0.88269000  1
  C  C124  1  0.60092000  0.11032000  0.90438000  1
  C  C125  1  0.64336000  0.23649000  0.86143000  1
  N  N126  1  0.55555000  0.23687000  0.85477000  1
  C  C127  1  0.52796000  0.15691000  0.88197000  1
  H  H128  1  0.94431000  0.99214000  0.91422000  1
  N  N129  1  0.84013000  0.04306000  0.84726000  1
  C  C130  1  0.90612000  0.98781000  0.86403000  1
  H  H131  1  0.85778000  0.90658000  0.70736000  1
  C  C132  1  0.81052000  0.01657000  0.77954000  1
  H  H133  1  0.75710000  0.05074000  0.75225000  1
  N  N134  1  0.92075000  0.92763000  0.81132000  1
  C  C135  1  0.86025000  0.94536000  0.75736000  1
  C  C136  1  0.11491000  0.81937000  0.60517000  1
  H  H137  1  0.04122000  0.93164000  0.65642000  1
  H  H138  1  0.11347000  0.68409000  0.74088000  1
  N  N139  1  0.06366000  0.81410000  0.71963000  1
  C  C140  1  0.06931000  0.86583000  0.65786000  1
  C  C141  1  0.10544000  0.73868000  0.70281000  1
  H  H142  1  0.13353000  0.83758000  0.54975000  1
  N  N143  1  0.13758000  0.73878000  0.63421000  1
  C  C144  1  0.23239000  0.93117000  0.93048000  1
  H  H145  1  0.06433000  0.81476000  0.97498000  1
  C  C146  1  0.11431000  0.85471000  0.94841000  1
  H  H147  1  0.20263000  0.95158000  0.81127000  1
  N  N148  1  0.18568000  0.88602000  0.98296000  1
  N  N149  1  0.11231000  0.87684000  0.87709000  1
  C  C150  1  0.18713000  0.92551000  0.86517000  1
  H  H151  1  0.29426000  0.96304000  0.94348000  1
  N  N152  1  0.57928000  0.07240000  0.31134000  1
  C  C153  1  0.63977000  0.05465000  0.25737000  1
  N  N154  1  0.65984000  0.95691000  0.34725000  1
  C  C155  1  0.68946000  0.98341000  0.27953000  1
  H  H156  1  0.74286000  0.94922000  0.25223000  1
  H  H157  1  0.64226000  0.09345000  0.20738000  1
  H  H158  1  0.55569000  0.00786000  0.41422000  1
  C  C159  1  0.59388000  0.01219000  0.36403000  1
  C  C160  1  0.39456000  0.26132000  0.20281000  1
  C  C161  1  0.38509000  0.18063000  0.10517000  1
  H  H162  1  0.36648000  0.16242000  0.04975000  1
  N  N163  1  0.36242000  0.26122000  0.13421000  1
  H  H164  1  0.38653000  0.31591000  0.24088000  1
  N  N165  1  0.43633000  0.18590000  0.21963000  1
  H  H166  1  0.45877000  0.06835000  0.15643000  1
  C  C167  1  0.43068000  0.13417000  0.15786000  1
  N  N168  1  0.88764000  0.37676000  0.62293000  1
  C  C169  1  0.81284000  0.42546000  0.63484000  1
  N  N170  1  0.81436000  0.38610000  0.51702000  1
  C  C171  1  0.76764000  0.43122000  0.56951000  1
  H  H172  1  0.93567000  0.31476000  0.52502000  1
  H  H173  1  0.70580000  0.46314000  0.55649000  1
  C  C174  1  0.88569000  0.35471000  0.55159000  1
  H  H175  1  0.79731000  0.45148000  0.68875000  1
  C  C176  1  0.26761000  0.43115000  0.93048000  1
  H  H177  1  0.43682000  0.31669000  0.97541000  1
  C  C178  1  0.38569000  0.35471000  0.94841000  1
  H  H179  1  0.29801000  0.45267000  0.81151000  1
  N  N180  1  0.38768000  0.37684000  0.87709000  1
  C  C181  1  0.31283000  0.42544000  0.86516000  1
  N  N182  1  0.31436000  0.38610000  0.98298000  1
  H  H183  1  0.20645000  0.46424000  0.94375000  1
  N  N184  1  0.61236000  0.87676000  0.62293000  1
  C  C185  1  0.68720000  0.92539000  0.63485000  1
  N  N186  1  0.68559000  0.88618000  0.51700000  1
  H  H187  1  0.79349000  0.96434000  0.55622000  1
  H  H188  1  0.56318000  0.81669000  0.52459000  1
  C  C189  1  0.73237000  0.93120000  0.56951000  1
  C  C190  1  0.61431000  0.85471000  0.55159000  1
  H  H191  1  0.70205000  0.95257000  0.68851000  1
  H  H192  1  0.31475000  0.70949000  0.15625000  1
  C  C193  1  0.35664000  0.76351000  0.13857000  1
  H  H194  1  0.54106000  0.86082000  0.11730000  1
  N  N195  1  0.44445000  0.76313000  0.14523000  1
  C  C196  1  0.47204000  0.84309000  0.11803000  1
  N  N197  1  0.32617000  0.83867000  0.10889000  1
  H  H198  1  0.39334000  0.95516000  0.07193000  1
  C  C199  1  0.39908000  0.88969000  0.09562000  1
  H  H200  1  0.14224000  0.09343000  0.29263000  1
  N  N201  1  0.07926000  0.07238000  0.18867000  1
  C  C202  1  0.13976000  0.05464000  0.24263000  1
  N  N203  1  0.15986000  0.95693000  0.15274000  1
  H  H204  1  0.24289000  0.94925000  0.24776000  1
  C  C205  1  0.18948000  0.98342000  0.22047000  1
  H  H206  1  0.05569000  0.00786000  0.08578000  1
  C  C207  1  0.09388000  0.01219000  0.13597000  1
  C  C208  1  0.93066000  0.13416000  0.34213000  1
  H  H209  1  0.88850000  0.31681000  0.25976000  1
  C  C210  1  0.89456000  0.26132000  0.29719000  1
  H  H211  1  0.86762000  0.16294000  0.45062000  1
  C  C212  1  0.88504000  0.18061000  0.39481000  1
  N  N213  1  0.86244000  0.26123000  0.36580000  1
  N  N214  1  0.93639000  0.18592000  0.28039000  1
  H  H215  1  0.95997000  0.06890000  0.34397000  1
  C  C216  1  0.14336000  0.26351000  0.13857000  1
  H  H217  1  0.95883000  0.36024000  0.11622000  1
  C  C218  1  0.10093000  0.38972000  0.09568000  1
  N  N219  1  0.05554000  0.26309000  0.14515000  1
  C  C220  1  0.02796000  0.34309000  0.11804000  1
  N  N221  1  0.17384000  0.33867000  0.10890000  1
  H  H222  1  0.10655000  0.45464000  0.07095000  1
  H  H223  1  0.18507000  0.20857000  0.15450000  1
  C  C224  1  0.36029000  0.55460000  0.24266000  1
  H  H225  1  0.44282000  0.50929000  0.08493000  1
  N  N226  1  0.34009000  0.45698000  0.15271000  1
  C  C227  1  0.31054000  0.48341000  0.22048000  1
  H  H228  1  0.25620000  0.45012000  0.24725000  1
  C  C229  1  0.40612000  0.51219000  0.13597000  1
  H  H230  1  0.35691000  0.59425000  0.29215000  1
  N  N231  1  0.42073000  0.57239000  0.18867000  1
  C  C232  1  0.61496000  0.68061000  0.39481000  1
  H  H233  1  0.61150000  0.81681000  0.25976000  1
  N  N234  1  0.56361000  0.68592000  0.28039000  1
  C  C235  1  0.60544000  0.76132000  0.29719000  1
  H  H236  1  0.63238000  0.66294000  0.45062000  1
  C  C237  1  0.56934000  0.63416000  0.34213000  1
  N  N238  1  0.63756000  0.76123000  0.36580000  1
  H  H239  1  0.54003000  0.56890000  0.34397000  1
  C  C240  1  0.60092000  0.38970000  0.40436000  1
  N  N241  1  0.55555000  0.26312000  0.35479000  1
  C  C242  1  0.52796000  0.34311000  0.38192000  1
  H  H243  1  0.68507000  0.20857000  0.34550000  1
  N  N244  1  0.67383000  0.33864000  0.39116000  1
  H  H245  1  0.60654000  0.45460000  0.42913000  1
  C  C246  1  0.64336000  0.26351000  0.36143000  1
  H  H247  1  0.45883000  0.36028000  0.38371000  1
  N  N248  1  0.84016000  0.45691000  0.34725000  1
  C  C249  1  0.81054000  0.48341000  0.27953000  1
  N  N250  1  0.92072000  0.57240000  0.31134000  1
  H  H251  1  0.75714000  0.44923000  0.25223000  1
  C  C252  1  0.90612000  0.51219000  0.36403000  1
  H  H253  1  0.85774000  0.59345000  0.20738000  1
  C  C254  1  0.86023000  0.55466000  0.25737000  1
  H  H255  1  0.94431000  0.50786000  0.41422000  1
  C  C256  1  0.10544000  0.76132000  0.20281000  1
  H  H257  1  0.13237000  0.66294000  0.04937000  1
  C  C258  1  0.06935000  0.63415000  0.15787000  1
  H  H259  1  0.11150000  0.81681000  0.24024000  1
  N  N260  1  0.13755000  0.76123000  0.13420000  1
  C  C261  1  0.11496000  0.68061000  0.10519000  1
  N  N262  1  0.06362000  0.68592000  0.21961000  1
  H  H263  1  0.04004000  0.56889000  0.15604000  1
  N  N264  1  0.94445000  0.76312000  0.35479000  1
  H  H265  1  0.04116000  0.86028000  0.38371000  1
  H  H266  1  0.81493000  0.70857000  0.34550000  1
  N  N267  1  0.82617000  0.83864000  0.39116000  1
  H  H268  1  0.89345000  0.95460000  0.42913000  1
  C  C269  1  0.85664000  0.76351000  0.36143000  1
  C  C270  1  0.89908000  0.88970000  0.40436000  1
  C  C271  1  0.97204000  0.84311000  0.38192000  1
  Si  Si272  1  0.99037000  0.16398000  0.18626000  1
  Si  Si273  1  0.29785000  0.13949000  0.59170000  1
  Si  Si274  1  0.79785000  0.36051000  0.40830000  1
  Si  Si275  1  0.00963000  0.83602000  0.81374000  1
  Si  Si276  1  0.20215000  0.63949000  0.59170000  1
  Si  Si277  1  0.29785000  0.36051000  0.09170000  1
  Si  Si278  1  0.49036000  0.33602000  0.81374000  1
  Si  Si279  1  0.49036000  0.16398000  0.31374000  1
  Si  Si280  1  0.20215000  0.86051000  0.09170000  1
  Si  Si281  1  0.50963000  0.83602000  0.68626000  1
  Si  Si282  1  0.00963000  0.66398000  0.31374000  1
  Si  Si283  1  0.79785000  0.13949000  0.90830000  1
  Si  Si284  1  0.99037000  0.33602000  0.68626000  1
  Si  Si285  1  0.50963000  0.66398000  0.18626000  1
  Si  Si286  1  0.70215000  0.63949000  0.90830000  1
  Si  Si287  1  0.70215000  0.86051000  0.40830000  1
  Ce  Ce288  1  0.82587000  0.09954875  0.08327000  1
  Ce  Ce289  1  0.67413000  0.59955000  0.08326750  1
  Ce  Ce290  1  0.32618125  0.09902000  0.41684750  1
  Ce  Ce291  1  0.17413000  0.59955000  0.41673125  1
  Ce  Ce292  1  0.40599125  0.67231000  0.61850125  1
  Ce  Ce293  1  0.13828875  0.48334625  0.69560125  1
  Ce  Ce294  1  0.90314625  0.30351625  0.84183375  1
  Ce  Ce295  1  0.09406000  0.17205750  0.61897875  1
  Ce  Ce296  1  0.36171250  0.98334500  0.69560250  1
  Ce  Ce297  1  0.59685375  0.80351625  0.84183375  1
  Ce  Ce298  1  0.90594125  0.67205625  0.88102125  1
  Ce  Ce299  1  0.63788250  0.48373875  0.80416875  1
  Ce  Ce300  1  0.40260875  0.30376125  0.65834250  1
  Ce  Ce301  1  0.59406000  0.17205625  0.88102125  1
  Ce  Ce302  1  0.86212000  0.98373625  0.80416750  1
  Ce  Ce303  1  0.09739000  0.80375875  0.65834125  1
  Ce  Ce304  1  0.17413000  0.90045375  0.91673000  1
  Ce  Ce305  1  0.63788000  0.01626125  0.30416875  1
  Ce  Ce306  1  0.40260750  0.19624000  0.15834250  1
  Ce  Ce307  1  0.82586875  0.40045375  0.58326875  1
  Ce  Ce308  1  0.32618125  0.40098000  0.91684875  1
  Ce  Ce309  1  0.67381875  0.90098000  0.58315000  1
  Ce  Ce310  1  0.40594125  0.82794500  0.11897750  1
  Ce  Ce311  1  0.13788250  0.01626250  0.19583125  1
  Ce  Ce312  1  0.90314750  0.19648625  0.34183375  1
  Ce  Ce313  1  0.09401000  0.32769125  0.11850125  1
  Ce  Ce314  1  0.36171250  0.51665375  0.19560250  1
  Ce  Ce315  1  0.59685250  0.69648625  0.34183375  1
  Ce  Ce316  1  0.59400750  0.32769125  0.38150000  1
  Ce  Ce317  1  0.86212000  0.51626375  0.30416875  1
  Ce  Ce318  1  0.09685375  0.69648375  0.15816625  1
  Ce  Ce319  1  0.90599000  0.82769125  0.38150000  1
