# generated using pymatgen
data_Zn2Si2H19C15(N3O2)3
_symmetry_space_group_name_H-M   'P 1'
_cell_length_a   15.39500000
_cell_length_b   15.30730000
_cell_length_c   18.42600000
_cell_angle_alpha   90.00000000
_cell_angle_beta   90.00000000
_cell_angle_gamma   90.00000000
_symmetry_Int_Tables_number   1
_chemical_formula_structural   Zn2Si2H19C15(N3O2)3
_chemical_formula_sum   'Zn16 Si16 H152 C120 N72 O48'
_cell_volume   4342.19530937
_cell_formula_units_Z   8
loop_
 _symmetry_equiv_pos_site_id
 _symmetry_equiv_pos_as_xyz
  1  'x, y, z'
loop_
 _atom_site_type_symbol
 _atom_site_label
 _atom_site_symmetry_multiplicity
 _atom_site_fract_x
 _atom_site_fract_y
 _atom_site_fract_z
 _atom_site_occupancy
  O  O0  1  0.18840000  0.86610000  0.42960000  1
  N  N1  1  0.32010000  0.82080000  0.40210000  1
  O  O2  1  0.18840000  0.63390000  0.92960000  1
  N  N3  1  0.32010000  0.67920000  0.90210000  1
  O  O4  1  0.31160000  0.13390000  0.92960000  1
  N  N5  1  0.17990000  0.17920000  0.90210000  1
  O  O6  1  0.81160000  0.36610000  0.07040000  1
  N  N7  1  0.67990000  0.32080000  0.09790000  1
  O  O8  1  0.81160000  0.13390000  0.57040000  1
  N  N9  1  0.67990000  0.17920000  0.59790000  1
  O  O10  1  0.31160000  0.36610000  0.42960000  1
  N  N11  1  0.17990000  0.32080000  0.40210000  1
  O  O12  1  0.68840000  0.86610000  0.07040000  1
  N  N13  1  0.82010000  0.82080000  0.09790000  1
  O  O14  1  0.68840000  0.63390000  0.57040000  1
  N  N15  1  0.82010000  0.67920000  0.59790000  1
  N  N16  1  0.83630000  0.03685000  0.85008000  1
  N  N17  1  0.92445000  0.93287000  0.80772000  1
  N  N18  1  0.32702000  0.83852000  0.10990000  1
  N  N19  1  0.44376000  0.76486000  0.14604000  1
  N  N20  1  0.10088000  0.86758000  0.88468000  1
  N  N21  1  0.17417000  0.87744000  0.98847000  1
  Zn  Zn22  1  0.20215000  0.86051000  0.09169800  1
  N  N23  1  0.06206000  0.81197000  0.71808000  1
  N  N24  1  0.13490000  0.73928000  0.63318000  1
  Zn  Zn25  1  0.00963500  0.83602000  0.81374300  1
  N  N26  1  0.33630000  0.46315000  0.14992000  1
  N  N27  1  0.42445000  0.56713000  0.19228000  1
  N  N28  1  0.82702000  0.66148000  0.89010000  1
  N  N29  1  0.94376000  0.73514000  0.85396000  1
  N  N30  1  0.60088000  0.63242000  0.11532000  1
  N  N31  1  0.67417000  0.62256000  0.01153000  1
  Zn  Zn32  1  0.70215000  0.63949000  0.90830200  1
  N  N33  1  0.56206000  0.68803000  0.28192000  1
  N  N34  1  0.63490000  0.76072000  0.36682000  1
  Zn  Zn35  1  0.50963500  0.66398000  0.18625700  1
  N  N36  1  0.66370000  0.53685000  0.85008000  1
  N  N37  1  0.57555000  0.43287000  0.80772000  1
  N  N38  1  0.17298000  0.33852000  0.10990000  1
  N  N39  1  0.05624000  0.26486000  0.14604000  1
  N  N40  1  0.39912000  0.36758000  0.88468000  1
  N  N41  1  0.32583000  0.37744000  0.98847000  1
  Zn  Zn42  1  0.29785000  0.36051000  0.09169800  1
  N  N43  1  0.43794000  0.31197000  0.71808000  1
  N  N44  1  0.36510000  0.23928000  0.63318000  1
  Zn  Zn45  1  0.49036500  0.33602000  0.81374300  1
  N  N46  1  0.16370000  0.96315000  0.14992000  1
  N  N47  1  0.07555000  0.06713000  0.19228000  1
  N  N48  1  0.67298000  0.16148000  0.89010000  1
  N  N49  1  0.55624000  0.23514000  0.85396000  1
  N  N50  1  0.89912000  0.13242000  0.11532000  1
  N  N51  1  0.82583000  0.12256000  0.01153000  1
  Zn  Zn52  1  0.79785000  0.13949000  0.90830200  1
  N  N53  1  0.93794000  0.18803000  0.28192000  1
  N  N54  1  0.86510000  0.26072000  0.36682000  1
  Zn  Zn55  1  0.99036500  0.16398000  0.18625700  1
  N  N56  1  0.16370000  0.53685000  0.64992000  1
  N  N57  1  0.07555000  0.43287000  0.69228000  1
  N  N58  1  0.67298000  0.33852000  0.39010000  1
  N  N59  1  0.55624000  0.26486000  0.35396000  1
  N  N60  1  0.89912000  0.36758000  0.61532000  1
  N  N61  1  0.82583000  0.37744000  0.51153000  1
  Zn  Zn62  1  0.79785000  0.36051000  0.40830200  1
  N  N63  1  0.93794000  0.31197000  0.78192000  1
  N  N64  1  0.86510000  0.23928000  0.86682000  1
  Zn  Zn65  1  0.99036500  0.33602000  0.68625700  1
  N  N66  1  0.66370000  0.96315000  0.35008000  1
  N  N67  1  0.57555000  0.06713000  0.30772000  1
  N  N68  1  0.17298000  0.16148000  0.60990000  1
  N  N69  1  0.05624000  0.23514000  0.64604000  1
  N  N70  1  0.39912000  0.13242000  0.38468000  1
  N  N71  1  0.32583000  0.12256000  0.48847000  1
  Zn  Zn72  1  0.29785000  0.13949000  0.59169800  1
  N  N73  1  0.43794000  0.18803000  0.21808000  1
  N  N74  1  0.36510000  0.26072000  0.13318000  1
  Zn  Zn75  1  0.49036500  0.16398000  0.31374300  1
  N  N76  1  0.83630000  0.46315000  0.35008000  1
  N  N77  1  0.92445000  0.56713000  0.30772000  1
  N  N78  1  0.32702000  0.66148000  0.60990000  1
  N  N79  1  0.44376000  0.73514000  0.64604000  1
  N  N80  1  0.10088000  0.63242000  0.38468000  1
  N  N81  1  0.17417000  0.62256000  0.48847000  1
  Zn  Zn82  1  0.20215000  0.63949000  0.59169800  1
  N  N83  1  0.06206000  0.68803000  0.21808000  1
  N  N84  1  0.13490000  0.76072000  0.13318000  1
  Zn  Zn85  1  0.00963500  0.66398000  0.31374300  1
  N  N86  1  0.33630000  0.03685000  0.64992000  1
  N  N87  1  0.42445000  0.93287000  0.69228000  1
  N  N88  1  0.82702000  0.83852000  0.39010000  1
  N  N89  1  0.94376000  0.76486000  0.35396000  1
  N  N90  1  0.60088000  0.86758000  0.61532000  1
  N  N91  1  0.67417000  0.87744000  0.51153000  1
  Zn  Zn92  1  0.70215000  0.86051000  0.40830200  1
  N  N93  1  0.56206000  0.81197000  0.78192000  1
  N  N94  1  0.63490000  0.73928000  0.86682000  1
  Zn  Zn95  1  0.50963500  0.83602000  0.68625700  1
  H  H96  1  0.40500000  0.78300000  0.33440000  1
  H  H97  1  0.31240000  0.73930000  0.32470000  1
  H  H98  1  0.32760000  0.83740000  0.30020000  1
  H  H99  1  0.36250000  0.77100000  0.48860000  1
  H  H100  1  0.37190000  0.87390000  0.48350000  1
  H  H101  1  0.43450000  0.81270000  0.43790000  1
  H  H102  1  0.22330000  0.79660000  0.37600000  1
  H  H103  1  0.40500000  0.71700000  0.83440000  1
  H  H104  1  0.31240000  0.76070000  0.82470000  1
  H  H105  1  0.32760000  0.66260000  0.80020000  1
  H  H106  1  0.36250000  0.72900000  0.98860000  1
  H  H107  1  0.37190000  0.62610000  0.98350000  1
  H  H108  1  0.43450000  0.68730000  0.93790000  1
  H  H109  1  0.22330000  0.70340000  0.87600000  1
  H  H110  1  0.09500000  0.21700000  0.83440000  1
  H  H111  1  0.18760000  0.26070000  0.82470000  1
  H  H112  1  0.17240000  0.16260000  0.80020000  1
  H  H113  1  0.13750000  0.22900000  0.98860000  1
  H  H114  1  0.12810000  0.12610000  0.98350000  1
  H  H115  1  0.06550000  0.18730000  0.93790000  1
  H  H116  1  0.27670000  0.20340000  0.87600000  1
  H  H117  1  0.59500000  0.28300000  0.16560000  1
  H  H118  1  0.68760000  0.23930000  0.17530000  1
  H  H119  1  0.67240000  0.33740000  0.19980000  1
  H  H120  1  0.63750000  0.27100000  0.01140000  1
  H  H121  1  0.62810000  0.37390000  0.01650000  1
  H  H122  1  0.56550000  0.31270000  0.06210000  1
  H  H123  1  0.77670000  0.29660000  0.12400000  1
  H  H124  1  0.59500000  0.21700000  0.66560000  1
  H  H125  1  0.68760000  0.26070000  0.67530000  1
  H  H126  1  0.67240000  0.16260000  0.69980000  1
  H  H127  1  0.63750000  0.22900000  0.51140000  1
  H  H128  1  0.62810000  0.12610000  0.51650000  1
  H  H129  1  0.56550000  0.18730000  0.56210000  1
  H  H130  1  0.77670000  0.20340000  0.62400000  1
  H  H131  1  0.09500000  0.28300000  0.33440000  1
  H  H132  1  0.18760000  0.23930000  0.32470000  1
  H  H133  1  0.17240000  0.33740000  0.30020000  1
  H  H134  1  0.13750000  0.27100000  0.48860000  1
  H  H135  1  0.12810000  0.37390000  0.48350000  1
  H  H136  1  0.06550000  0.31270000  0.43790000  1
  H  H137  1  0.27670000  0.29660000  0.37600000  1
  H  H138  1  0.90500000  0.78300000  0.16560000  1
  H  H139  1  0.81240000  0.73930000  0.17530000  1
  H  H140  1  0.82760000  0.83740000  0.19980000  1
  H  H141  1  0.86250000  0.77100000  0.01140000  1
  H  H142  1  0.87190000  0.87390000  0.01650000  1
  H  H143  1  0.93450000  0.81270000  0.06210000  1
  H  H144  1  0.72330000  0.79660000  0.12400000  1
  H  H145  1  0.90500000  0.71700000  0.66560000  1
  H  H146  1  0.81240000  0.76070000  0.67530000  1
  H  H147  1  0.82760000  0.66260000  0.69980000  1
  H  H148  1  0.86250000  0.72900000  0.51140000  1
  H  H149  1  0.87190000  0.62610000  0.51650000  1
  H  H150  1  0.93450000  0.68730000  0.56210000  1
  H  H151  1  0.72330000  0.70340000  0.62400000  1
  H  H152  1  0.85790000  0.92230000  0.71170000  1
  H  H153  1  0.76090000  0.03740000  0.75830000  1
  H  H154  1  0.93810000  0.99000000  0.90460000  1
  H  H155  1  0.32190000  0.71990000  0.15520000  1
  H  H156  1  0.39930000  0.94200000  0.07200000  1
  H  H157  1  0.52870000  0.86050000  0.11190000  1
  H  H158  1  0.06400000  0.81080000  0.97640000  1
  H  H159  1  0.26910000  0.95110000  0.94395000  1
  H  H160  1  0.19010000  0.93840000  0.82905000  1
  H  H161  1  0.09770000  0.68700000  0.72760000  1
  H  H162  1  0.13720000  0.84540000  0.56430000  1
  H  H163  1  0.05780000  0.92450000  0.65790000  1
  H  H164  1  0.35790000  0.57770000  0.28830000  1
  H  H165  1  0.26090000  0.46260000  0.24170000  1
  H  H166  1  0.43810000  0.51000000  0.09540000  1
  H  H167  1  0.82190000  0.78010000  0.84480000  1
  H  H168  1  0.89930000  0.55800000  0.92800000  1
  H  H169  1  0.02870000  0.63950000  0.88810000  1
  H  H170  1  0.56400000  0.68920000  0.02360000  1
  H  H171  1  0.76910000  0.54890000  0.05605000  1
  H  H172  1  0.69010000  0.56160000  0.17095000  1
  H  H173  1  0.59770000  0.81300000  0.27240000  1
  H  H174  1  0.63720000  0.65460000  0.43570000  1
  H  H175  1  0.55780000  0.57550000  0.34210000  1
  H  H176  1  0.64210000  0.42230000  0.71170000  1
  H  H177  1  0.73910000  0.53740000  0.75830000  1
  H  H178  1  0.56190000  0.49000000  0.90460000  1
  H  H179  1  0.17810000  0.21990000  0.15520000  1
  H  H180  1  0.10070000  0.44200000  0.07200000  1
  H  H181  1  0.97130000  0.36050000  0.11190000  1
  H  H182  1  0.43600000  0.31080000  0.97640000  1
  H  H183  1  0.23090000  0.45110000  0.94395000  1
  H  H184  1  0.30990000  0.43840000  0.82905000  1
  H  H185  1  0.40230000  0.18700000  0.72760000  1
  H  H186  1  0.36280000  0.34540000  0.56430000  1
  H  H187  1  0.44220000  0.42450000  0.65790000  1
  H  H188  1  0.14210000  0.07770000  0.28830000  1
  H  H189  1  0.23910000  0.96260000  0.24170000  1
  H  H190  1  0.06190000  0.01000000  0.09540000  1
  H  H191  1  0.67810000  0.28010000  0.84480000  1
  H  H192  1  0.60070000  0.05800000  0.92800000  1
  H  H193  1  0.47130000  0.13950000  0.88810000  1
  H  H194  1  0.93600000  0.18920000  0.02360000  1
  H  H195  1  0.73090000  0.04890000  0.05605000  1
  H  H196  1  0.80990000  0.06160000  0.17095000  1
  H  H197  1  0.90230000  0.31300000  0.27240000  1
  H  H198  1  0.86280000  0.15460000  0.43570000  1
  H  H199  1  0.94220000  0.07550000  0.34210000  1
  H  H200  1  0.14210000  0.42230000  0.78830000  1
  H  H201  1  0.23910000  0.53740000  0.74170000  1
  H  H202  1  0.06190000  0.49000000  0.59540000  1
  H  H203  1  0.67810000  0.21990000  0.34480000  1
  H  H204  1  0.60070000  0.44200000  0.42800000  1
  H  H205  1  0.47130000  0.36050000  0.38810000  1
  H  H206  1  0.93600000  0.31080000  0.52360000  1
  H  H207  1  0.73090000  0.45110000  0.55605000  1
  H  H208  1  0.80990000  0.43840000  0.67095000  1
  H  H209  1  0.90230000  0.18700000  0.77240000  1
  H  H210  1  0.86280000  0.34540000  0.93570000  1
  H  H211  1  0.94220000  0.42450000  0.84210000  1
  H  H212  1  0.64210000  0.07770000  0.21170000  1
  H  H213  1  0.73910000  0.96260000  0.25830000  1
  H  H214  1  0.56190000  0.01000000  0.40460000  1
  H  H215  1  0.17810000  0.28010000  0.65520000  1
  H  H216  1  0.10070000  0.05800000  0.57200000  1
  H  H217  1  0.97130000  0.13950000  0.61190000  1
  H  H218  1  0.43600000  0.18920000  0.47640000  1
  H  H219  1  0.23090000  0.04890000  0.44395000  1
  H  H220  1  0.30990000  0.06160000  0.32905000  1
  H  H221  1  0.40230000  0.31300000  0.22760000  1
  H  H222  1  0.36280000  0.15460000  0.06430000  1
  H  H223  1  0.44220000  0.07550000  0.15790000  1
  H  H224  1  0.85790000  0.57770000  0.21170000  1
  H  H225  1  0.76090000  0.46260000  0.25830000  1
  H  H226  1  0.93810000  0.51000000  0.40460000  1
  H  H227  1  0.32190000  0.78010000  0.65520000  1
  H  H228  1  0.39930000  0.55800000  0.57200000  1
  H  H229  1  0.52870000  0.63950000  0.61190000  1
  H  H230  1  0.06400000  0.68920000  0.47640000  1
  H  H231  1  0.26910000  0.54890000  0.44395000  1
  H  H232  1  0.19010000  0.56160000  0.32905000  1
  H  H233  1  0.09770000  0.81300000  0.22760000  1
  H  H234  1  0.13720000  0.65460000  0.06430000  1
  H  H235  1  0.05780000  0.57550000  0.15790000  1
  H  H236  1  0.35790000  0.92230000  0.78830000  1
  H  H237  1  0.26090000  0.03740000  0.74170000  1
  H  H238  1  0.43810000  0.99000000  0.59540000  1
  H  H239  1  0.82190000  0.71990000  0.34480000  1
  H  H240  1  0.89930000  0.94200000  0.42800000  1
  H  H241  1  0.02870000  0.86050000  0.38810000  1
  H  H242  1  0.56400000  0.81080000  0.52360000  1
  H  H243  1  0.76910000  0.95110000  0.55605000  1
  H  H244  1  0.69010000  0.93840000  0.67095000  1
  H  H245  1  0.59770000  0.68700000  0.77240000  1
  H  H246  1  0.63720000  0.84540000  0.93570000  1
  H  H247  1  0.55780000  0.92450000  0.84210000  1
  C  C248  1  0.34290000  0.79320000  0.33580000  1
  C  C249  1  0.37600000  0.81950000  0.45670000  1
  C  C250  1  0.24720000  0.83620000  0.40950000  1
  C  C251  1  0.34290000  0.70680000  0.83580000  1
  C  C252  1  0.37600000  0.68050000  0.95670000  1
  C  C253  1  0.24720000  0.66380000  0.90950000  1
  C  C254  1  0.15710000  0.20680000  0.83580000  1
  C  C255  1  0.12400000  0.18050000  0.95670000  1
  C  C256  1  0.25280000  0.16380000  0.90950000  1
  C  C257  1  0.65710000  0.29320000  0.16420000  1
  C  C258  1  0.62400000  0.31950000  0.04330000  1
  C  C259  1  0.75280000  0.33620000  0.09050000  1
  C  C260  1  0.65710000  0.20680000  0.66420000  1
  C  C261  1  0.62400000  0.18050000  0.54330000  1
  C  C262  1  0.75280000  0.16380000  0.59050000  1
  C  C263  1  0.15710000  0.29320000  0.33580000  1
  C  C264  1  0.12400000  0.31950000  0.45670000  1
  C  C265  1  0.25280000  0.33620000  0.40950000  1
  C  C266  1  0.84290000  0.79320000  0.16420000  1
  C  C267  1  0.87600000  0.81950000  0.04330000  1
  C  C268  1  0.74720000  0.83620000  0.09050000  1
  C  C269  1  0.84290000  0.70680000  0.66420000  1
  C  C270  1  0.87600000  0.68050000  0.54330000  1
  C  C271  1  0.74720000  0.66380000  0.59050000  1
  C  C272  1  0.86280000  0.94990000  0.75710000  1
  C  C273  1  0.80890000  0.01370000  0.78300000  1
  C  C274  1  0.90531000  0.98711000  0.86161000  1
  C  C275  1  0.35769000  0.76610000  0.13981000  1
  C  C276  1  0.39910000  0.88680000  0.09429000  1
  C  C277  1  0.47080000  0.84180000  0.11630000  1
  C  C278  1  0.10590000  0.84601000  0.95360000  1
  C  C279  1  0.21775000  0.92150000  0.93635000  1
  C  C280  1  0.17405000  0.91495000  0.87315000  1
  C  C281  1  0.09815000  0.73721000  0.69816000  1
  C  C282  1  0.11980000  0.82240000  0.60932000  1
  C  C283  1  0.07600000  0.86590000  0.66094000  1
  C  C284  1  0.36280000  0.55010000  0.24290000  1
  C  C285  1  0.30890000  0.48630000  0.21700000  1
  C  C286  1  0.40531000  0.51289000  0.13839000  1
  C  C287  1  0.85769000  0.73390000  0.86019000  1
  C  C288  1  0.89910000  0.61320000  0.90571000  1
  C  C289  1  0.97080000  0.65820000  0.88370000  1
  C  C290  1  0.60590000  0.65399000  0.04640000  1
  C  C291  1  0.71775000  0.57850000  0.06365000  1
  C  C292  1  0.67405000  0.58505000  0.12685000  1
  C  C293  1  0.59815000  0.76279000  0.30184000  1
  C  C294  1  0.61980000  0.67760000  0.39068000  1
  C  C295  1  0.57600000  0.63410000  0.33906000  1
  C  C296  1  0.63720000  0.44990000  0.75710000  1
  C  C297  1  0.69110000  0.51370000  0.78300000  1
  C  C298  1  0.59469000  0.48711000  0.86161000  1
  C  C299  1  0.14231000  0.26610000  0.13981000  1
  C  C300  1  0.10090000  0.38680000  0.09429000  1
  C  C301  1  0.02920000  0.34180000  0.11630000  1
  C  C302  1  0.39410000  0.34601000  0.95360000  1
  C  C303  1  0.28225000  0.42150000  0.93635000  1
  C  C304  1  0.32595000  0.41495000  0.87315000  1
  C  C305  1  0.40185000  0.23721000  0.69816000  1
  C  C306  1  0.38020000  0.32240000  0.60932000  1
  C  C307  1  0.42400000  0.36590000  0.66094000  1
  C  C308  1  0.13720000  0.05010000  0.24290000  1
  C  C309  1  0.19110000  0.98630000  0.21700000  1
  C  C310  1  0.09469000  0.01289000  0.13839000  1
  C  C311  1  0.64231000  0.23390000  0.86019000  1
  C  C312  1  0.60090000  0.11320000  0.90571000  1
  C  C313  1  0.52920000  0.15820000  0.88370000  1
  C  C314  1  0.89410000  0.15399000  0.04640000  1
  C  C315  1  0.78225000  0.07850000  0.06365000  1
  C  C316  1  0.82595000  0.08505000  0.12685000  1
  C  C317  1  0.90185000  0.26279000  0.30184000  1
  C  C318  1  0.88020000  0.17760000  0.39068000  1
  C  C319  1  0.92400000  0.13410000  0.33906000  1
  C  C320  1  0.13720000  0.44990000  0.74290000  1
  C  C321  1  0.19110000  0.51370000  0.71700000  1
  C  C322  1  0.09469000  0.48711000  0.63839000  1
  C  C323  1  0.64231000  0.26610000  0.36019000  1
  C  C324  1  0.60090000  0.38680000  0.40571000  1
  C  C325  1  0.52920000  0.34180000  0.38370000  1
  C  C326  1  0.89410000  0.34601000  0.54640000  1
  C  C327  1  0.78225000  0.42150000  0.56365000  1
  C  C328  1  0.82595000  0.41495000  0.62685000  1
  C  C329  1  0.90185000  0.23721000  0.80184000  1
  C  C330  1  0.88020000  0.32240000  0.89068000  1
  C  C331  1  0.92400000  0.36590000  0.83906000  1
  C  C332  1  0.63720000  0.05010000  0.25710000  1
  C  C333  1  0.69110000  0.98630000  0.28300000  1
  C  C334  1  0.59469000  0.01289000  0.36161000  1
  C  C335  1  0.14231000  0.23390000  0.63981000  1
  C  C336  1  0.10090000  0.11320000  0.59429000  1
  C  C337  1  0.02920000  0.15820000  0.61630000  1
  C  C338  1  0.39410000  0.15399000  0.45360000  1
  C  C339  1  0.28225000  0.07850000  0.43635000  1
  C  C340  1  0.32595000  0.08505000  0.37315000  1
  C  C341  1  0.40185000  0.26279000  0.19816000  1
  C  C342  1  0.38020000  0.17760000  0.10932000  1
  C  C343  1  0.42400000  0.13410000  0.16094000  1
  C  C344  1  0.86280000  0.55010000  0.25710000  1
  C  C345  1  0.80890000  0.48630000  0.28300000  1
  C  C346  1  0.90531000  0.51289000  0.36161000  1
  C  C347  1  0.35769000  0.73390000  0.63981000  1
  C  C348  1  0.39910000  0.61320000  0.59429000  1
  C  C349  1  0.47080000  0.65820000  0.61630000  1
  C  C350  1  0.10590000  0.65399000  0.45360000  1
  C  C351  1  0.21775000  0.57850000  0.43635000  1
  C  C352  1  0.17405000  0.58505000  0.37315000  1
  C  C353  1  0.09815000  0.76279000  0.19816000  1
  C  C354  1  0.11980000  0.67760000  0.10932000  1
  C  C355  1  0.07600000  0.63410000  0.16094000  1
  C  C356  1  0.36280000  0.94990000  0.74290000  1
  C  C357  1  0.30890000  0.01370000  0.71700000  1
  C  C358  1  0.40531000  0.98711000  0.63839000  1
  C  C359  1  0.85769000  0.76610000  0.36019000  1
  C  C360  1  0.89910000  0.88680000  0.40571000  1
  C  C361  1  0.97080000  0.84180000  0.38370000  1
  C  C362  1  0.60590000  0.84601000  0.54640000  1
  C  C363  1  0.71775000  0.92150000  0.56365000  1
  C  C364  1  0.67405000  0.91495000  0.62685000  1
  C  C365  1  0.59815000  0.73721000  0.80184000  1
  C  C366  1  0.61980000  0.82240000  0.89068000  1
  C  C367  1  0.57600000  0.86590000  0.83906000  1
  O  O368  1  0.32598333  0.81247500  0.39825000  1
  O  O369  1  0.32598333  0.68752500  0.89825000  1
  O  O370  1  0.17401667  0.18752500  0.89825000  1
  O  O371  1  0.67401667  0.31247500  0.10175000  1
  O  O372  1  0.67401667  0.18752500  0.60175000  1
  O  O373  1  0.17401667  0.31247500  0.39825000  1
  O  O374  1  0.82598333  0.81247500  0.10175000  1
  O  O375  1  0.82598333  0.68752500  0.60175000  1
  O  O376  1  0.86183250  0.98376625  0.80426375  1
  O  O377  1  0.40603375  0.82756000  0.11818000  1
  O  O378  1  0.16199375  0.89097250  0.92320625  1
  Si  Si379  1  0.20215000  0.86051000  0.09169800  1
  O  O380  1  0.09795125  0.80420750  0.65868500  1
  Si  Si381  1  0.00963500  0.83602000  0.81374300  1
  O  O382  1  0.36183250  0.51623375  0.19573625  1
  O  O383  1  0.90603375  0.67244000  0.88182000  1
  O  O384  1  0.66199375  0.60902750  0.07679375  1
  Si  Si385  1  0.70215000  0.63949000  0.90830200  1
  O  O386  1  0.59795125  0.69579250  0.34131500  1
  Si  Si387  1  0.50963500  0.66398000  0.18625700  1
  O  O388  1  0.63816750  0.48376625  0.80426375  1
  O  O389  1  0.09396625  0.32756000  0.11818000  1
  O  O390  1  0.33800625  0.39097250  0.92320625  1
  Si  Si391  1  0.29785000  0.36051000  0.09169800  1
  O  O392  1  0.40204875  0.30420750  0.65868500  1
  Si  Si393  1  0.49036500  0.33602000  0.81374300  1
  O  O394  1  0.13816750  0.01623375  0.19573625  1
  O  O395  1  0.59396625  0.17244000  0.88182000  1
  O  O396  1  0.83800625  0.10902750  0.07679375  1
  Si  Si397  1  0.79785000  0.13949000  0.90830200  1
  O  O398  1  0.90204875  0.19579250  0.34131500  1
  Si  Si399  1  0.99036500  0.16398000  0.18625700  1
  O  O400  1  0.13816750  0.48376625  0.69573625  1
  O  O401  1  0.59396625  0.32756000  0.38182000  1
  O  O402  1  0.83800625  0.39097250  0.57679375  1
  Si  Si403  1  0.79785000  0.36051000  0.40830200  1
  O  O404  1  0.90204875  0.30420750  0.84131500  1
  Si  Si405  1  0.99036500  0.33602000  0.68625700  1
  O  O406  1  0.63816750  0.01623375  0.30426375  1
  O  O407  1  0.09396625  0.17244000  0.61818000  1
  O  O408  1  0.33800625  0.10902750  0.42320625  1
  Si  Si409  1  0.29785000  0.13949000  0.59169800  1
  O  O410  1  0.40204875  0.19579250  0.15868500  1
  Si  Si411  1  0.49036500  0.16398000  0.31374300  1
  O  O412  1  0.86183250  0.51623375  0.30426375  1
  O  O413  1  0.40603375  0.67244000  0.61818000  1
  O  O414  1  0.16199375  0.60902750  0.42320625  1
  Si  Si415  1  0.20215000  0.63949000  0.59169800  1
  O  O416  1  0.09795125  0.69579250  0.15868500  1
  Si  Si417  1  0.00963500  0.66398000  0.31374300  1
  O  O418  1  0.36183250  0.98376625  0.69573625  1
  O  O419  1  0.90603375  0.82756000  0.38182000  1
  O  O420  1  0.66199375  0.89097250  0.57679375  1
  Si  Si421  1  0.70215000  0.86051000  0.40830200  1
  O  O422  1  0.59795125  0.80420750  0.84131500  1
  Si  Si423  1  0.50963500  0.83602000  0.68625700  1
