36
Lattice="16.8509 0.0 1.0318200373876067e-15 -1.0318200373876067e-15 16.8509 1.0318200373876067e-15 0.0 0.0 16.8509" Properties=species:S:1:pos:R:3 pbc="T T T"
O        6.25199025       6.25199025       0.28860991
O        0.28860991      10.59890975      10.59890975
O        0.28860991       6.25199025       6.25199025
O       10.59890975      10.59890975       0.28860991
O       10.59890975       0.28860991      10.59890975
O        6.25199025       0.28860991       6.25199025
O        8.13684009      14.67744025       2.17345975
O        6.25199025      16.56229009      10.59890975
O        8.71405991      14.67744025      14.67744025
O        8.13684009       2.17345975      14.67744025
O        8.71405991       2.17345975       2.17345975
O       10.59890975       6.25199025      16.56229009
O        6.25199025      10.59890975      16.56229009
O        2.17345975       2.17345975       8.71405991
O       10.59890975      16.56229009       6.25199025
O       16.56229009      10.59890975       6.25199025
O       14.67744025      14.67744025       8.71405991
O       14.67744025       2.17345975       8.13684009
O        2.17345975      14.67744025       8.13684009
O        2.17345975       8.71405991       2.17345975
O       16.56229009       6.25199025      10.59890975
O        2.17345975       8.13684009      14.67744025
O       14.67744025       8.13684009       2.17345975
O       14.67744025       8.71405991      14.67744025
Si       8.42545000      12.63817500       0.00000000
Si       8.42545000       0.00000000      12.63817500
Si       8.42545000       4.21272500       0.00000000
Si      -0.00000000       4.21272500       8.42545000
Si       4.21272500       0.00000000       8.42545000
Si      -0.00000000       8.42545000       4.21272500
Si       8.42545000       0.00000000       4.21272500
Si      12.63817500       0.00000000       8.42545000
Si      -0.00000000      12.63817500       8.42545000
Si       4.21272500       8.42545000       0.00000000
Si      -0.00000000       8.42545000      12.63817500
Si      12.63817500       8.42545000       0.00000000
