# generated using pymatgen
data_Ce2ZnSiH10(C2N)4
_symmetry_space_group_name_H-M   'P 1'
_cell_length_a   16.85090000
_cell_length_b   16.85090000
_cell_length_c   16.85090000
_cell_angle_alpha   90.00000000
_cell_angle_beta   90.00000000
_cell_angle_gamma   90.00000000
_symmetry_Int_Tables_number   1
_chemical_formula_structural   Ce2ZnSiH10(C2N)4
_chemical_formula_sum   'Ce24 Zn12 Si12 H120 C96 N48'
_cell_volume   4784.86075670
_cell_formula_units_Z   12
loop_
 _symmetry_equiv_pos_site_id
 _symmetry_equiv_pos_as_xyz
  1  'x, y, z'
loop_
 _atom_site_type_symbol
 _atom_site_label
 _atom_site_symmetry_multiplicity
 _atom_site_fract_x
 _atom_site_fract_y
 _atom_site_fract_z
 _atom_site_occupancy
  C  C0  1  0.40150000  0.40150000  0.91390000  1
  C  C1  1  0.31600000  0.37240000  0.10880000  1
  C  C2  1  0.37240000  0.31600000  0.10880000  1
  C  C3  1  0.37600000  0.37600000  0.99470000  1
  N  N4  1  0.41170000  0.31730000  0.03570000  1
  N  N5  1  0.31730000  0.41170000  0.03570000  1
  C  C6  1  0.91390000  0.59850000  0.59850000  1
  C  C7  1  0.10880000  0.68400000  0.62760000  1
  C  C8  1  0.10880000  0.62760000  0.68400000  1
  C  C9  1  0.99470000  0.62400000  0.62400000  1
  N  N10  1  0.03570000  0.58830000  0.68270000  1
  N  N11  1  0.03570000  0.68270000  0.58830000  1
  C  C12  1  0.91390000  0.40150000  0.40150000  1
  C  C13  1  0.10880000  0.37240000  0.31600000  1
  C  C14  1  0.10880000  0.31600000  0.37240000  1
  C  C15  1  0.99470000  0.37600000  0.37600000  1
  N  N16  1  0.03570000  0.31730000  0.41170000  1
  N  N17  1  0.03570000  0.41170000  0.31730000  1
  C  C18  1  0.59850000  0.59850000  0.91390000  1
  C  C19  1  0.68400000  0.62760000  0.10880000  1
  C  C20  1  0.62760000  0.68400000  0.10880000  1
  C  C21  1  0.62400000  0.62400000  0.99470000  1
  N  N22  1  0.68270000  0.58830000  0.03570000  1
  N  N23  1  0.58830000  0.68270000  0.03570000  1
  C  C24  1  0.59850000  0.91390000  0.59850000  1
  C  C25  1  0.68400000  0.10880000  0.62760000  1
  C  C26  1  0.62760000  0.10880000  0.68400000  1
  C  C27  1  0.62400000  0.99470000  0.62400000  1
  N  N28  1  0.58830000  0.03570000  0.68270000  1
  N  N29  1  0.68270000  0.03570000  0.58830000  1
  C  C30  1  0.40150000  0.91390000  0.40150000  1
  C  C31  1  0.37240000  0.10880000  0.31600000  1
  C  C32  1  0.31600000  0.10880000  0.37240000  1
  C  C33  1  0.37600000  0.99470000  0.37600000  1
  N  N34  1  0.31730000  0.03570000  0.41170000  1
  N  N35  1  0.41170000  0.03570000  0.31730000  1
  C  C36  1  0.58610000  0.90150000  0.09850000  1
  C  C37  1  0.39120000  0.87240000  0.18400000  1
  C  C38  1  0.39120000  0.81600000  0.12760000  1
  C  C39  1  0.50530000  0.87600000  0.12400000  1
  N  N40  1  0.46430000  0.91170000  0.18270000  1
  N  N41  1  0.46430000  0.81730000  0.08830000  1
  C  C42  1  0.40150000  0.08610000  0.59850000  1
  C  C43  1  0.37240000  0.89120000  0.68400000  1
  C  C44  1  0.31600000  0.89120000  0.62760000  1
  C  C45  1  0.37600000  0.00530000  0.62400000  1
  N  N46  1  0.31730000  0.96430000  0.58830000  1
  N  N47  1  0.41170000  0.96430000  0.68270000  1
  Zn  Zn48  1  0.50000000  0.75000000  0.00000000  1
  C  C49  1  0.41390000  0.90150000  0.90150000  1
  C  C50  1  0.60880000  0.81600000  0.87240000  1
  C  C51  1  0.60880000  0.87240000  0.81600000  1
  C  C52  1  0.49470000  0.87600000  0.87600000  1
  N  N53  1  0.53570000  0.91170000  0.81730000  1
  N  N54  1  0.53570000  0.81730000  0.91170000  1
  Zn  Zn55  1  0.50000000  0.00000000  0.75000000  1
  C  C56  1  0.58610000  0.09850000  0.90150000  1
  C  C57  1  0.39120000  0.18400000  0.87240000  1
  C  C58  1  0.39120000  0.12760000  0.81600000  1
  C  C59  1  0.50530000  0.12400000  0.87600000  1
  N  N60  1  0.46430000  0.18270000  0.91170000  1
  N  N61  1  0.46430000  0.08830000  0.81730000  1
  Zn  Zn62  1  0.50000000  0.25000000  0.00000000  1
  C  C63  1  0.41390000  0.09850000  0.09850000  1
  C  C64  1  0.60880000  0.18400000  0.12760000  1
  C  C65  1  0.60880000  0.12760000  0.18400000  1
  C  C66  1  0.49470000  0.12400000  0.12400000  1
  N  N67  1  0.53570000  0.18270000  0.08830000  1
  N  N68  1  0.53570000  0.08830000  0.18270000  1
  C  C69  1  0.59850000  0.40150000  0.08610000  1
  C  C70  1  0.68400000  0.37240000  0.89120000  1
  C  C71  1  0.62760000  0.31600000  0.89120000  1
  C  C72  1  0.62400000  0.37600000  0.00530000  1
  N  N73  1  0.58830000  0.31730000  0.96430000  1
  N  N74  1  0.68270000  0.41170000  0.96430000  1
  C  C75  1  0.40150000  0.59850000  0.08610000  1
  C  C76  1  0.37240000  0.68400000  0.89120000  1
  C  C77  1  0.31600000  0.62760000  0.89120000  1
  C  C78  1  0.37600000  0.62400000  0.00530000  1
  N  N79  1  0.31730000  0.58830000  0.96430000  1
  N  N80  1  0.41170000  0.68270000  0.96430000  1
  Zn  Zn81  1  0.00000000  0.25000000  0.50000000  1
  C  C82  1  0.09850000  0.09850000  0.41390000  1
  C  C83  1  0.18400000  0.12760000  0.60880000  1
  C  C84  1  0.12760000  0.18400000  0.60880000  1
  C  C85  1  0.12400000  0.12400000  0.49470000  1
  N  N86  1  0.18270000  0.08830000  0.53570000  1
  N  N87  1  0.08830000  0.18270000  0.53570000  1
  Zn  Zn88  1  0.25000000  0.00000000  0.50000000  1
  Zn  Zn89  1  0.00000000  0.50000000  0.25000000  1
  Zn  Zn90  1  0.50000000  0.00000000  0.25000000  1
  C  C91  1  0.59850000  0.08610000  0.40150000  1
  C  C92  1  0.62760000  0.89120000  0.31600000  1
  C  C93  1  0.68400000  0.89120000  0.37240000  1
  C  C94  1  0.62400000  0.00530000  0.37600000  1
  N  N95  1  0.68270000  0.96430000  0.41170000  1
  N  N96  1  0.58830000  0.96430000  0.31730000  1
  C  C97  1  0.08610000  0.59850000  0.40150000  1
  C  C98  1  0.89120000  0.68400000  0.37240000  1
  C  C99  1  0.89120000  0.62760000  0.31600000  1
  C  C100  1  0.00530000  0.62400000  0.37600000  1
  N  N101  1  0.96430000  0.58830000  0.31730000  1
  N  N102  1  0.96430000  0.68270000  0.41170000  1
  C  C103  1  0.90150000  0.90150000  0.41390000  1
  C  C104  1  0.81600000  0.87240000  0.60880000  1
  C  C105  1  0.87240000  0.81600000  0.60880000  1
  C  C106  1  0.87600000  0.87600000  0.49470000  1
  N  N107  1  0.81730000  0.91170000  0.53570000  1
  N  N108  1  0.91170000  0.81730000  0.53570000  1
  Zn  Zn109  1  0.75000000  0.00000000  0.50000000  1
  C  C110  1  0.90150000  0.09850000  0.58610000  1
  C  C111  1  0.87240000  0.18400000  0.39120000  1
  C  C112  1  0.81600000  0.12760000  0.39120000  1
  C  C113  1  0.87600000  0.12400000  0.50530000  1
  N  N114  1  0.91170000  0.18270000  0.46430000  1
  N  N115  1  0.81730000  0.08830000  0.46430000  1
  Zn  Zn116  1  0.00000000  0.75000000  0.50000000  1
  C  C117  1  0.09850000  0.90150000  0.58610000  1
  C  C118  1  0.18400000  0.87240000  0.39120000  1
  C  C119  1  0.12760000  0.81600000  0.39120000  1
  C  C120  1  0.12400000  0.87600000  0.50530000  1
  N  N121  1  0.18270000  0.91170000  0.46430000  1
  N  N122  1  0.08830000  0.81730000  0.46430000  1
  Zn  Zn123  1  0.25000000  0.50000000  0.00000000  1
  C  C124  1  0.09850000  0.41390000  0.09850000  1
  C  C125  1  0.18400000  0.60880000  0.12760000  1
  C  C126  1  0.12760000  0.60880000  0.18400000  1
  C  C127  1  0.12400000  0.49470000  0.12400000  1
  N  N128  1  0.18270000  0.53570000  0.08830000  1
  N  N129  1  0.08830000  0.53570000  0.18270000  1
  C  C130  1  0.08610000  0.40150000  0.59850000  1
  C  C131  1  0.89120000  0.37240000  0.68400000  1
  C  C132  1  0.89120000  0.31600000  0.62760000  1
  C  C133  1  0.00530000  0.37600000  0.62400000  1
  N  N134  1  0.96430000  0.31730000  0.58830000  1
  N  N135  1  0.96430000  0.41170000  0.68270000  1
  Zn  Zn136  1  0.00000000  0.50000000  0.75000000  1
  C  C137  1  0.09850000  0.58610000  0.90150000  1
  C  C138  1  0.18400000  0.39120000  0.87240000  1
  C  C139  1  0.12760000  0.39120000  0.81600000  1
  C  C140  1  0.12400000  0.50530000  0.87600000  1
  N  N141  1  0.18270000  0.46430000  0.91170000  1
  N  N142  1  0.08830000  0.46430000  0.81730000  1
  C  C143  1  0.90150000  0.58610000  0.09850000  1
  C  C144  1  0.87240000  0.39120000  0.18400000  1
  C  C145  1  0.81600000  0.39120000  0.12760000  1
  C  C146  1  0.87600000  0.50530000  0.12400000  1
  N  N147  1  0.91170000  0.46430000  0.18270000  1
  N  N148  1  0.81730000  0.46430000  0.08830000  1
  Zn  Zn149  1  0.75000000  0.50000000  0.00000000  1
  C  C150  1  0.90150000  0.41390000  0.90150000  1
  C  C151  1  0.81600000  0.60880000  0.87240000  1
  C  C152  1  0.87240000  0.60880000  0.81600000  1
  C  C153  1  0.87600000  0.49470000  0.87600000  1
  N  N154  1  0.91170000  0.53570000  0.81730000  1
  N  N155  1  0.81730000  0.53570000  0.91170000  1
  H  H156  1  0.43800000  0.43800000  0.91610000  1
  H  H157  1  0.36220000  0.42090000  0.88675000  1
  H  H158  1  0.42090000  0.36220000  0.88675000  1
  H  H159  1  0.28170000  0.38350000  0.15060000  1
  H  H160  1  0.38350000  0.28170000  0.15060000  1
  H  H161  1  0.91610000  0.56200000  0.56200000  1
  H  H162  1  0.88675000  0.63780000  0.57910000  1
  H  H163  1  0.88675000  0.57910000  0.63780000  1
  H  H164  1  0.15060000  0.71830000  0.61650000  1
  H  H165  1  0.15060000  0.61650000  0.71830000  1
  H  H166  1  0.91610000  0.43800000  0.43800000  1
  H  H167  1  0.88675000  0.42090000  0.36220000  1
  H  H168  1  0.88675000  0.36220000  0.42090000  1
  H  H169  1  0.15060000  0.38350000  0.28170000  1
  H  H170  1  0.15060000  0.28170000  0.38350000  1
  H  H171  1  0.56200000  0.56200000  0.91610000  1
  H  H172  1  0.63780000  0.57910000  0.88675000  1
  H  H173  1  0.57910000  0.63780000  0.88675000  1
  H  H174  1  0.71830000  0.61650000  0.15060000  1
  H  H175  1  0.61650000  0.71830000  0.15060000  1
  H  H176  1  0.56200000  0.91610000  0.56200000  1
  H  H177  1  0.57910000  0.88675000  0.63780000  1
  H  H178  1  0.63780000  0.88675000  0.57910000  1
  H  H179  1  0.71830000  0.15060000  0.61650000  1
  H  H180  1  0.61650000  0.15060000  0.71830000  1
  H  H181  1  0.43800000  0.91610000  0.43800000  1
  H  H182  1  0.42090000  0.88675000  0.36220000  1
  H  H183  1  0.36220000  0.88675000  0.42090000  1
  H  H184  1  0.38350000  0.15060000  0.28170000  1
  H  H185  1  0.28170000  0.15060000  0.38350000  1
  H  H186  1  0.58390000  0.93800000  0.06200000  1
  H  H187  1  0.61325000  0.86220000  0.07910000  1
  H  H188  1  0.61325000  0.92090000  0.13780000  1
  H  H189  1  0.34940000  0.88350000  0.21830000  1
  H  H190  1  0.34940000  0.78170000  0.11650000  1
  H  H191  1  0.43800000  0.08390000  0.56200000  1
  H  H192  1  0.42090000  0.11325000  0.63780000  1
  H  H193  1  0.36220000  0.11325000  0.57910000  1
  H  H194  1  0.38350000  0.84940000  0.71830000  1
  H  H195  1  0.28170000  0.84940000  0.61650000  1
  H  H196  1  0.41610000  0.93800000  0.93800000  1
  H  H197  1  0.38675000  0.86220000  0.92090000  1
  H  H198  1  0.38675000  0.92090000  0.86220000  1
  H  H199  1  0.65060000  0.78170000  0.88350000  1
  H  H200  1  0.65060000  0.88350000  0.78170000  1
  H  H201  1  0.58390000  0.06200000  0.93800000  1
  H  H202  1  0.61325000  0.07910000  0.86220000  1
  H  H203  1  0.61325000  0.13780000  0.92090000  1
  H  H204  1  0.34940000  0.21830000  0.88350000  1
  H  H205  1  0.34940000  0.11650000  0.78170000  1
  H  H206  1  0.41610000  0.06200000  0.06200000  1
  H  H207  1  0.38675000  0.13780000  0.07910000  1
  H  H208  1  0.38675000  0.07910000  0.13780000  1
  H  H209  1  0.65060000  0.21830000  0.11650000  1
  H  H210  1  0.65060000  0.11650000  0.21830000  1
  H  H211  1  0.56200000  0.43800000  0.08390000  1
  H  H212  1  0.63780000  0.42090000  0.11325000  1
  H  H213  1  0.57910000  0.36220000  0.11325000  1
  H  H214  1  0.71830000  0.38350000  0.84940000  1
  H  H215  1  0.61650000  0.28170000  0.84940000  1
  H  H216  1  0.43800000  0.56200000  0.08390000  1
  H  H217  1  0.42090000  0.63780000  0.11325000  1
  H  H218  1  0.36220000  0.57910000  0.11325000  1
  H  H219  1  0.38350000  0.71830000  0.84940000  1
  H  H220  1  0.28170000  0.61650000  0.84940000  1
  H  H221  1  0.06200000  0.06200000  0.41610000  1
  H  H222  1  0.13780000  0.07910000  0.38675000  1
  H  H223  1  0.07910000  0.13780000  0.38675000  1
  H  H224  1  0.21830000  0.11650000  0.65060000  1
  H  H225  1  0.11650000  0.21830000  0.65060000  1
  H  H226  1  0.56200000  0.08390000  0.43800000  1
  H  H227  1  0.63780000  0.11325000  0.42090000  1
  H  H228  1  0.57910000  0.11325000  0.36220000  1
  H  H229  1  0.61650000  0.84940000  0.28170000  1
  H  H230  1  0.71830000  0.84940000  0.38350000  1
  H  H231  1  0.08390000  0.56200000  0.43800000  1
  H  H232  1  0.11325000  0.63780000  0.42090000  1
  H  H233  1  0.11325000  0.57910000  0.36220000  1
  H  H234  1  0.84940000  0.71830000  0.38350000  1
  H  H235  1  0.84940000  0.61650000  0.28170000  1
  H  H236  1  0.93800000  0.93800000  0.41610000  1
  H  H237  1  0.86220000  0.92090000  0.38675000  1
  H  H238  1  0.92090000  0.86220000  0.38675000  1
  H  H239  1  0.78170000  0.88350000  0.65060000  1
  H  H240  1  0.88350000  0.78170000  0.65060000  1
  H  H241  1  0.93800000  0.06200000  0.58390000  1
  H  H242  1  0.86220000  0.07910000  0.61325000  1
  H  H243  1  0.92090000  0.13780000  0.61325000  1
  H  H244  1  0.88350000  0.21830000  0.34940000  1
  H  H245  1  0.78170000  0.11650000  0.34940000  1
  H  H246  1  0.06200000  0.93800000  0.58390000  1
  H  H247  1  0.07910000  0.86220000  0.61325000  1
  H  H248  1  0.13780000  0.92090000  0.61325000  1
  H  H249  1  0.21830000  0.88350000  0.34940000  1
  H  H250  1  0.11650000  0.78170000  0.34940000  1
  H  H251  1  0.06200000  0.41610000  0.06200000  1
  H  H252  1  0.07910000  0.38675000  0.13780000  1
  H  H253  1  0.13780000  0.38675000  0.07910000  1
  H  H254  1  0.21830000  0.65060000  0.11650000  1
  H  H255  1  0.11650000  0.65060000  0.21830000  1
  H  H256  1  0.08390000  0.43800000  0.56200000  1
  H  H257  1  0.11325000  0.42090000  0.63780000  1
  H  H258  1  0.11325000  0.36220000  0.57910000  1
  H  H259  1  0.84940000  0.38350000  0.71830000  1
  H  H260  1  0.84940000  0.28170000  0.61650000  1
  H  H261  1  0.06200000  0.58390000  0.93800000  1
  H  H262  1  0.07910000  0.61325000  0.86220000  1
  H  H263  1  0.13780000  0.61325000  0.92090000  1
  H  H264  1  0.21830000  0.34940000  0.88350000  1
  H  H265  1  0.11650000  0.34940000  0.78170000  1
  H  H266  1  0.93800000  0.58390000  0.06200000  1
  H  H267  1  0.86220000  0.61325000  0.07910000  1
  H  H268  1  0.92090000  0.61325000  0.13780000  1
  H  H269  1  0.88350000  0.34940000  0.21830000  1
  H  H270  1  0.78170000  0.34940000  0.11650000  1
  H  H271  1  0.93800000  0.41610000  0.93800000  1
  H  H272  1  0.92090000  0.38675000  0.86220000  1
  H  H273  1  0.86220000  0.38675000  0.92090000  1
  H  H274  1  0.78170000  0.65060000  0.88350000  1
  H  H275  1  0.88350000  0.65060000  0.78170000  1
  Ce  Ce276  1  0.37101818  0.37101818  0.01712727  1
  Ce  Ce277  1  0.01712727  0.62898182  0.62898182  1
  Ce  Ce278  1  0.01712727  0.37101818  0.37101818  1
  Ce  Ce279  1  0.62898182  0.62898182  0.01712727  1
  Ce  Ce280  1  0.62898182  0.01712727  0.62898182  1
  Ce  Ce281  1  0.37101818  0.01712727  0.37101818  1
  Ce  Ce282  1  0.48287273  0.87101818  0.12898182  1
  Ce  Ce283  1  0.37101818  0.98287273  0.62898182  1
  Si  Si284  1  0.50000000  0.75000000  0.00000000  1
  Ce  Ce285  1  0.51712727  0.87101818  0.87101818  1
  Si  Si286  1  0.50000000  0.00000000  0.75000000  1
  Ce  Ce287  1  0.48287273  0.12898182  0.87101818  1
  Si  Si288  1  0.50000000  0.25000000  0.00000000  1
  Ce  Ce289  1  0.51712727  0.12898182  0.12898182  1
  Ce  Ce290  1  0.62898182  0.37101818  0.98287273  1
  Ce  Ce291  1  0.37101818  0.62898182  0.98287273  1
  Si  Si292  1  0.00000000  0.25000000  0.50000000  1
  Ce  Ce293  1  0.12898182  0.12898182  0.51712727  1
  Si  Si294  1  0.25000000  0.00000000  0.50000000  1
  Si  Si295  1  0.00000000  0.50000000  0.25000000  1
  Si  Si296  1  0.50000000  0.00000000  0.25000000  1
  Ce  Ce297  1  0.62898182  0.98287273  0.37101818  1
  Ce  Ce298  1  0.98287273  0.62898182  0.37101818  1
  Ce  Ce299  1  0.87101818  0.87101818  0.51712727  1
  Si  Si300  1  0.75000000  0.00000000  0.50000000  1
  Ce  Ce301  1  0.87101818  0.12898182  0.48287273  1
  Si  Si302  1  0.00000000  0.75000000  0.50000000  1
  Ce  Ce303  1  0.12898182  0.87101818  0.48287273  1
  Si  Si304  1  0.25000000  0.50000000  0.00000000  1
  Ce  Ce305  1  0.12898182  0.51712727  0.12898182  1
  Ce  Ce306  1  0.98287273  0.37101818  0.62898182  1
  Si  Si307  1  0.00000000  0.50000000  0.75000000  1
  Ce  Ce308  1  0.12898182  0.48287273  0.87101818  1
  Ce  Ce309  1  0.87101818  0.48287273  0.12898182  1
  Si  Si310  1  0.75000000  0.50000000  0.00000000  1
  Ce  Ce311  1  0.87101818  0.51712727  0.87101818  1
