# generated using pymatgen
data_Ce2ZnSiH6(C3N2)2
_symmetry_space_group_name_H-M   'P 1'
_cell_length_a   15.42300000
_cell_length_b   15.40400000
_cell_length_c   18.43800000
_cell_angle_alpha   90.00000000
_cell_angle_beta   90.00000000
_cell_angle_gamma   90.00000000
_symmetry_Int_Tables_number   1
_chemical_formula_structural   Ce2ZnSiH6(C3N2)2
_chemical_formula_sum   'Ce32 Zn16 Si16 H96 C96 N64'
_cell_volume   4380.42429670
_cell_formula_units_Z   16
loop_
 _symmetry_equiv_pos_site_id
 _symmetry_equiv_pos_as_xyz
  1  'x, y, z'
loop_
 _atom_site_type_symbol
 _atom_site_label
 _atom_site_symmetry_multiplicity
 _atom_site_fract_x
 _atom_site_fract_y
 _atom_site_fract_z
 _atom_site_occupancy
  Zn  Zn0  1  0.00330939  0.14358552  0.16621262  1
  Zn  Zn1  1  0.29834845  0.15846087  0.59866260  1
  Zn  Zn2  1  0.80388567  0.32563315  0.39104779  1
  Zn  Zn3  1  0.00241914  0.85332684  0.81477818  1
  Zn  Zn4  1  0.20330299  0.65975872  0.59488280  1
  Zn  Zn5  1  0.32727746  0.32664009  0.10884946  1
  Zn  Zn6  1  0.48178662  0.35573372  0.81999439  1
  Zn  Zn7  1  0.49849358  0.13118943  0.33730603  1
  Zn  Zn8  1  0.18271054  0.82341512  0.08377104  1
  Zn  Zn9  1  0.51772258  0.85665646  0.67930299  1
  Zn  Zn10  1  0.00062183  0.62710209  0.30637562  1
  Zn  Zn11  1  0.78992593  0.16445431  0.89991607  1
  Zn  Zn12  1  0.98526978  0.34417582  0.67630768  1
  Zn  Zn13  1  0.50771056  0.66183439  0.20541956  1
  Zn  Zn14  1  0.68426753  0.66457298  0.90728247  1
  Zn  Zn15  1  0.73736174  0.86584134  0.40941046  1
  C  C16  1  0.77853981  0.12661291  0.06438634  1
  C  C17  1  0.90111561  0.17090789  0.02424603  1
  N  N18  1  0.91318857  0.14185793  0.09376779  1
  C  C19  1  0.83855845  0.11272026  0.11643886  1
  H  H20  1  0.95517842  0.19193011  0.99223876  1
  H  H21  1  0.82666208  0.09251670  0.17139006  1
  N  N22  1  0.81869069  0.16048093  0.00315361  1
  H  H23  1  0.70991383  0.10720889  0.05699922  1
  N  N24  1  0.58508749  0.64925901  0.12080391  1
  N  N25  1  0.65846117  0.64179721  0.01388181  1
  H  H26  1  0.78706585  0.62588729  0.06330346  1
  C  C27  1  0.67240028  0.64319566  0.13588170  1
  C  C28  1  0.71910998  0.63697223  0.07289562  1
  H  H29  1  0.52248418  0.64454882  0.01830545  1
  C  C30  1  0.58283434  0.65174479  0.04775228  1
  H  H31  1  0.68929321  0.64414957  0.19412980  1
  H  H32  1  0.45675626  0.15648567  0.49799375  1
  N  N33  1  0.39564085  0.12114651  0.39682228  1
  C  C34  1  0.39796035  0.14027011  0.46635910  1
  H  H35  1  0.30262600  0.07394517  0.32481162  1
  C  C36  1  0.31393570  0.09973501  0.37802511  1
  N  N37  1  0.31873333  0.12970646  0.49628785  1
  H  H38  1  0.19930273  0.10002837  0.44939825  1
  C  C39  1  0.26677427  0.10605192  0.43872560  1
  N  N40  1  0.17696871  0.65106553  0.48519715  1
  H  H41  1  0.29383852  0.67788587  0.42156347  1
  C  C42  1  0.23078115  0.65057759  0.42645063  1
  C  C43  1  0.17858924  0.64497336  0.36489891  1
  H  H44  1  0.04303985  0.63247807  0.49193625  1
  C  C45  1  0.09745869  0.62935601  0.45753065  1
  H  H46  1  0.19225420  0.65079690  0.30765499  1
  N  N47  1  0.09576064  0.62653131  0.38485001  1
  H  H48  1  0.32373541  0.82305852  0.60902470  1
  H  H49  1  0.52724316  0.64913230  0.66277195  1
  N  N50  1  0.32651308  0.68872405  0.62732330  1
  C  C51  1  0.36573881  0.76633070  0.62029167  1
  N  N52  1  0.45101606  0.75847567  0.63495763  1
  C  C53  1  0.46667833  0.67265541  0.63993273  1
  H  H54  1  0.37823768  0.56412869  0.65624032  1
  C  C55  1  0.38978731  0.62959113  0.63662415  1
  H  H56  1  0.11671843  0.43693098  0.77958646  1
  N  N57  1  0.05247501  0.45155875  0.67824664  1
  N  N58  1  0.14468176  0.54312236  0.62748179  1
  H  H59  1  0.22434851  0.56007335  0.72879168  1
  C  C60  1  0.11458740  0.47089858  0.72738847  1
  C  C61  1  0.16709966  0.53168164  0.70076645  1
  H  H62  1  0.04002047  0.50323709  0.56530484  1
  C  C63  1  0.07479400  0.49472411  0.61707791  1
  C  C64  1  0.91610159  0.38177712  0.81997342  1
  H  H65  1  0.92464860  0.17385467  0.78645369  1
  N  N66  1  0.87424035  0.25485901  0.86684628  1
  H  H67  1  0.93358904  0.44574668  0.81855801  1
  C  C68  1  0.91848741  0.23959109  0.80698234  1
  H  H69  1  0.85557673  0.36850719  0.93094727  1
  C  C70  1  0.87650414  0.34487556  0.87675577  1
  N  N71  1  0.94533577  0.31482883  0.77347250  1
  N  N72  1  0.05130102  0.26555075  0.61131709  1
  N  N73  1  0.17201923  0.18450431  0.60457315  1
  H  H74  1  0.11319015  0.06813736  0.56293441  1
  H  H75  1  0.96798347  0.17196350  0.55831886  1
  C  C76  1  0.13685689  0.26174061  0.62492632  1
  C  C77  1  0.03051149  0.18811459  0.58066539  1
  C  C78  1  0.10491361  0.13706153  0.57371365  1
  H  H79  1  0.17153132  0.31961523  0.64301611  1
  C  C80  1  0.42632231  0.02344800  0.65083050  1
  C  C81  1  0.30687815  0.01867984  0.70971413  1
  H  H82  1  0.48178015  0.03908228  0.61854865  1
  N  N83  1  0.35508670  0.06971958  0.66075668  1
  H  H84  1  0.23926484  0.03146827  0.72650918  1
  H  H85  1  0.34317946  0.90174141  0.77143357  1
  N  N86  1  0.43545240  0.95585234  0.69575583  1
  C  C87  1  0.35682036  0.95116358  0.73172871  1
  H  H88  1  0.62233912  0.72228674  0.76043743  1
  C  C89  1  0.60025845  0.77215206  0.79793774  1
  N  N90  1  0.61316107  0.76055318  0.86793860  1
  C  C91  1  0.57769801  0.82988511  0.90287367  1
  H  H92  1  0.49772435  0.93766393  0.85011972  1
  H  H93  1  0.58507633  0.83050021  0.96187695  1
  N  N94  1  0.55202635  0.83686290  0.78026431  1
  C  C95  1  0.53551341  0.87921743  0.84712431  1
  N  N96  1  0.92361717  0.76785181  0.85814909  1
  C  C97  1  0.94547179  0.68431401  0.87532000  1
  N  N98  1  0.80761894  0.70225715  0.90619524  1
  H  H99  1  0.86541170  0.58046078  0.91908160  1
  C  C100  1  0.87581210  0.64791139  0.90433575  1
  H  H101  1  0.00684476  0.66009637  0.85991308  1
  H  H102  1  0.80856370  0.83517899  0.87138554  1
  C  C103  1  0.84581012  0.77552637  0.87864280  1
  C  C104  1  0.67228445  0.53738693  0.78196072  1
  H  H105  1  0.51751490  0.55614478  0.90244258  1
  C  C106  1  0.56552209  0.53406285  0.86175472  1
  H  H107  1  0.62139936  0.42235635  0.72238858  1
  N  N108  1  0.55422294  0.46024089  0.81989482  1
  C  C109  1  0.62201948  0.46575811  0.76977051  1
  N  N110  1  0.63615850  0.58015193  0.84174921  1
  H  H111  1  0.72250682  0.56579367  0.74620516  1
  H  H112  1  0.36487577  0.34945654  0.54359060  1
  N  N113  1  0.34527149  0.26994561  0.63876294  1
  C  C114  1  0.38197037  0.33899347  0.60057826  1
  H  H115  1  0.46172489  0.44868151  0.64605556  1
  N  N116  1  0.42793274  0.34581832  0.71647737  1
  C  C117  1  0.43375411  0.38519476  0.65021048  1
  H  H118  1  0.35550094  0.23250362  0.74464275  1
  C  C119  1  0.37263845  0.28260489  0.70752002  1
  N  N120  1  0.66411417  0.17720332  0.88205090  1
  H  H121  1  0.61498524  0.04456027  0.85763078  1
  H  H122  1  0.65974938  0.31041017  0.88697163  1
  H  H123  1  0.46250476  0.13756811  0.83504197  1
  C  C124  1  0.60170595  0.11405073  0.85980440  1
  C  C125  1  0.62785410  0.25288734  0.87065417  1
  N  N126  1  0.54583277  0.24478833  0.84645992  1
  C  C127  1  0.52622872  0.16055842  0.84739107  1
  H  H128  1  0.91793099  0.00678958  0.90673548  1
  N  N129  1  0.82918140  0.06357739  0.83228430  1
  C  C130  1  0.88648251  0.00292210  0.85535008  1
  H  H131  1  0.82948416  0.90787714  0.70907335  1
  C  C132  1  0.78944604  0.02414561  0.77233217  1
  H  H133  1  0.74028852  0.06227867  0.74305179  1
  N  N134  1  0.89286155  0.93429175  0.81069438  1
  C  C135  1  0.83023686  0.94662509  0.75941821  1
  C  C136  1  0.12224549  0.82935953  0.61626149  1
  H  H137  1  0.04641630  0.94203877  0.66003753  1
  H  H138  1  0.09428167  0.69772327  0.74851949  1
  N  N139  1  0.06005393  0.82791810  0.72445397  1
  C  C140  1  0.07958230  0.87904749  0.66548982  1
  C  C141  1  0.09825145  0.74853614  0.70901905  1
  H  H142  1  0.14283231  0.83838060  0.56204784  1
  N  N143  1  0.13292177  0.74684794  0.64490849  1
  C  C144  1  0.21748016  0.91998118  0.94294202  1
  H  H145  1  0.06378104  0.77567053  0.95992613  1
  C  C146  1  0.10493170  0.83168742  0.94246573  1
  H  H147  1  0.17689894  0.97793657  0.83978800  1
  N  N148  1  0.17546366  0.85378508  0.98001465  1
  N  N149  1  0.09134767  0.88487712  0.88499403  1
  C  C150  1  0.16356214  0.94366037  0.88852504  1
  H  H151  1  0.27398346  0.94293887  0.96761647  1
  N  N152  1  0.59896362  0.04009717  0.31184730  1
  C  C153  1  0.64456594  0.00985618  0.24915317  1
  N  N154  1  0.71568463  0.96774028  0.35394045  1
  C  C155  1  0.71779986  0.97317591  0.27576429  1
  H  H156  1  0.77502853  0.95045746  0.24672392  1
  H  H157  1  0.63383739  0.03578241  0.19595180  1
  H  H158  1  0.62711336  0.02453218  0.42398867  1
  C  C159  1  0.64342467  0.00948706  0.36941218  1
  C  C160  1  0.41677570  0.22470365  0.21839666  1
  C  C161  1  0.42807101  0.15523046  0.11847695  1
  H  H162  1  0.43167082  0.13729750  0.06153586  1
  N  N163  1  0.39905540  0.23124545  0.14752054  1
  H  H164  1  0.40385976  0.27375591  0.25850347  1
  N  N165  1  0.45878794  0.15205863  0.23446493  1
  H  H166  1  0.48808021  0.04597333  0.16807005  1
  C  C167  1  0.46317144  0.10932358  0.17188584  1
  N  N168  1  0.88400976  0.36531304  0.60112049  1
  C  C169  1  0.79558074  0.38021399  0.61244289  1
  N  N170  1  0.82171294  0.35578876  0.49376135  1
  C  C171  1  0.75843337  0.37843750  0.54559837  1
  H  H172  1  0.95313834  0.32965247  0.50589078  1
  H  H173  1  0.69340055  0.38665592  0.52765793  1
  C  C174  1  0.89550467  0.35232314  0.53283536  1
  H  H175  1  0.77258863  0.39856145  0.66700008  1
  C  C176  1  0.27248118  0.36904500  0.95941001  1
  H  H177  1  0.46245700  0.28888811  0.97494253  1
  C  C178  1  0.40163736  0.31481137  0.95592975  1
  H  H179  1  0.29800281  0.43955695  0.85440691  1
  N  N180  1  0.39594881  0.36709848  0.89965619  1
  C  C181  1  0.31492458  0.39955293  0.90019139  1
  N  N182  1  0.33134190  0.31215686  0.99803534  1
  H  H183  1  0.20760122  0.37712946  0.97896560  1
  N  N184  1  0.61990171  0.90162584  0.60948243  1
  C  C185  1  0.68014395  0.96400039  0.61099329  1
  N  N186  1  0.70005341  0.90273021  0.50645534  1
  H  H187  1  0.78187009  0.00969298  0.52812180  1
  H  H188  1  0.60757062  0.79840787  0.53006393  1
  C  C189  1  0.73142126  0.96736851  0.54950570  1
  C  C190  1  0.63708127  0.85929202  0.54359951  1
  H  H191  1  0.69171887  0.99901430  0.65941003  1
  H  H192  1  0.30396125  0.68509302  0.13456820  1
  C  C193  1  0.33769055  0.74560526  0.14028653  1
  H  H194  1  0.48906038  0.86547842  0.19631441  1
  N  N195  1  0.41243091  0.75704598  0.17557994  1
  C  C196  1  0.43249412  0.84140442  0.16787335  1
  N  N197  1  0.31152206  0.82051531  0.11026034  1
  H  H198  1  0.36385034  0.94389758  0.09951027  1
  C  C199  1  0.36819670  0.88212590  0.12603503  1
  H  H200  1  0.11547870  0.03629200  0.28318696  1
  N  N201  1  0.06571618  0.03607770  0.16842008  1
  C  C202  1  0.11010552  0.00527508  0.22955531  1
  N  N203  1  0.14077733  0.92035627  0.13582776  1
  H  H204  1  0.19611142  0.89730436  0.24151727  1
  C  C205  1  0.15529627  0.93649906  0.20851866  1
  H  H206  1  0.06400256  0.98182813  0.05843336  1
  C  C207  1  0.09043654  0.98055501  0.11315642  1
  C  C208  1  0.93731028  0.10494909  0.32277586  1
  H  H209  1  0.90206633  0.28872271  0.24689708  1
  C  C210  1  0.91248379  0.23468709  0.28144234  1
  H  H211  1  0.87754531  0.12800775  0.43179959  1
  C  C212  1  0.88875930  0.14480421  0.37573645  1
  N  N213  1  0.87270116  0.22914182  0.34899343  1
  N  N214  1  0.95150372  0.16127167  0.26473782  1
  H  H215  1  0.97786383  0.04888809  0.32361621  1
  C  C216  1  0.16161553  0.23683092  0.16826825  1
  H  H217  1  0.99898816  0.36276723  0.15193638  1
  C  C218  1  0.13296688  0.36065779  0.11689190  1
  N  N219  1  0.07518683  0.24752134  0.17774588  1
  C  C220  1  0.05898745  0.32741285  0.14488047  1
  N  N221  1  0.19726389  0.30405463  0.13174306  1
  H  H222  1  0.14597503  0.42411243  0.09414933  1
  H  H223  1  0.19658680  0.17877001  0.18599147  1
  C  C224  1  0.35252962  0.56055339  0.22435332  1
  H  H225  1  0.50301767  0.45848353  0.13707849  1
  N  N226  1  0.36668903  0.44204260  0.15864733  1
  C  C227  1  0.30699145  0.49008852  0.19720292  1
  H  H228  1  0.23990812  0.47705273  0.19827624  1
  C  C229  1  0.44462307  0.48156904  0.16423123  1
  H  H230  1  0.33308091  0.62242641  0.24563325  1
  N  N231  1  0.43948478  0.55378765  0.20668346  1
  C  C232  1  0.63973594  0.68551990  0.39333238  1
  H  H233  1  0.62000490  0.82547842  0.26431283  1
  N  N234  1  0.56456845  0.69687517  0.29007084  1
  C  C235  1  0.61904258  0.76689014  0.29932051  1
  H  H236  1  0.66294941  0.65561460  0.44282916  1
  C  C237  1  0.57927688  0.64667067  0.34964116  1
  N  N238  1  0.66184412  0.76341645  0.36258605  1
  H  H239  1  0.54457045  0.58629500  0.35999999  1
  C  C240  1  0.61545103  0.36276657  0.42128574  1
  N  N241  1  0.55874843  0.23234869  0.39113186  1
  C  C242  1  0.54256892  0.31248418  0.41910609  1
  H  H243  1  0.67706806  0.18042603  0.34820167  1
  N  N244  1  0.68064783  0.31036962  0.39057253  1
  H  H245  1  0.62401198  0.42736702  0.44176492  1
  C  C246  1  0.64577150  0.23418965  0.37477424  1
  H  H247  1  0.47916895  0.32778500  0.43785704  1
  N  N248  1  0.83961148  0.42909922  0.33813114  1
  C  C249  1  0.79357880  0.47490224  0.28810872  1
  N  N250  1  0.91068343  0.54755078  0.31707923  1
  H  H251  1  0.73021843  0.45167101  0.27035683  1
  C  C252  1  0.91185419  0.47463836  0.35170678  1
  H  H253  1  0.81714604  0.60019088  0.23674089  1
  C  C254  1  0.83567991  0.55198240  0.27663290  1
  H  H255  1  0.96107400  0.45295418  0.38706070  1
  C  C256  1  0.10401564  0.70990071  0.19794721  1
  H  H257  1  0.11431657  0.61878998  0.04259172  1
  C  C258  1  0.07161589  0.58040259  0.15598002  1
  H  H259  1  0.10854525  0.75909761  0.23811888  1
  N  N260  1  0.12716924  0.71159862  0.12739435  1
  C  C261  1  0.10520819  0.62876251  0.10089508  1
  N  N262  1  0.06770569  0.63163027  0.21623012  1
  H  H263  1  0.05239882  0.51374405  0.15591024  1
  N  N264  1  0.95696302  0.74263130  0.34113645  1
  H  H265  1  0.06469529  0.82029511  0.38379020  1
  H  H266  1  0.82537577  0.71598203  0.32998287  1
  N  N267  1  0.85604408  0.82398885  0.39328285  1
  H  H268  1  0.94058207  0.92192068  0.43522484  1
  C  C269  1  0.87509781  0.75692975  0.35104752  1
  C  C270  1  0.93722810  0.85869136  0.41283880  1
  C  C271  1  0.99581196  0.80434859  0.38109161  1
  Si  Si272  1  0.00330939  0.14358552  0.16621262  1
  Si  Si273  1  0.29834845  0.15846087  0.59866260  1
  Si  Si274  1  0.80388567  0.32563315  0.39104779  1
  Si  Si275  1  0.00241914  0.85332684  0.81477818  1
  Si  Si276  1  0.20330299  0.65975872  0.59488280  1
  Si  Si277  1  0.32727746  0.32664009  0.10884946  1
  Si  Si278  1  0.48178662  0.35573372  0.81999439  1
  Si  Si279  1  0.49849358  0.13118943  0.33730603  1
  Si  Si280  1  0.18271054  0.82341512  0.08377104  1
  Si  Si281  1  0.51772258  0.85665646  0.67930299  1
  Si  Si282  1  0.00062183  0.62710209  0.30637562  1
  Si  Si283  1  0.78992593  0.16445431  0.89991607  1
  Si  Si284  1  0.98526978  0.34417582  0.67630768  1
  Si  Si285  1  0.50771056  0.66183439  0.20541956  1
  Si  Si286  1  0.68426753  0.66457298  0.90728247  1
  Si  Si287  1  0.73736174  0.86584134  0.40941046  1
  Ce  Ce288  1  0.84273093  0.13802945  0.06532758  1
  Ce  Ce289  1  0.65209206  0.64219432  0.08336926  1
  Ce  Ce290  1  0.33146619  0.11592115  0.43105294  1
  Ce  Ce291  1  0.16358638  0.64545808  0.41751026  1
  Ce  Ce292  1  0.40361873  0.69401206  0.63589581  1
  Ce  Ce293  1  0.11684066  0.49902836  0.67808053  1
  Ce  Ce294  1  0.90556045  0.31550502  0.83499866  1
  Ce  Ce295  1  0.09353840  0.19958599  0.59493312  1
  Ce  Ce296  1  0.36809804  0.99889441  0.69565966  1
  Ce  Ce297  1  0.57297464  0.82114020  0.84607159  1
  Ce  Ce298  1  0.88489379  0.70669961  0.88412789  1
  Ce  Ce299  1  0.61395357  0.51523694  0.80577079  1
  Ce  Ce300  1  0.39295860  0.33164984  0.65597975  1
  Ce  Ce301  1  0.58787188  0.18025334  0.86075061  1
  Ce  Ce302  1  0.83948900  0.99356342  0.79861747  1
  Ce  Ce303  1  0.09707315  0.81373148  0.66634221  1
  Ce  Ce304  1  0.15843110  0.89131714  0.92578401  1
  Ce  Ce305  1  0.66955225  0.00139108  0.30334772  1
  Ce  Ce306  1  0.43618403  0.16619856  0.17235679  1
  Ce  Ce307  1  0.82179613  0.36836828  0.56078841  1
  Ce  Ce308  1  0.33554936  0.35852990  0.94019222  1
  Ce  Ce309  1  0.68122015  0.92526652  0.56720400  1
  Ce  Ce310  1  0.37740079  0.81764574  0.14380351  1
  Ce  Ce311  1  0.11724057  0.97427345  0.17982698  1
  Ce  Ce312  1  0.91502922  0.16755905  0.32449985  1
  Ce  Ce313  1  0.12094632  0.30526590  0.14645084  1
  Ce  Ce314  1  0.37329058  0.51075048  0.19151328  1
  Ce  Ce315  1  0.61149909  0.70334504  0.34526161  1
  Ce  Ce316  1  0.60292959  0.29846709  0.40308676  1
  Ce  Ce317  1  0.84998078  0.49787363  0.30822715  1
  Ce  Ce318  1  0.09387191  0.64424079  0.15438345  1
  Ce  Ce319  1  0.93147476  0.80559846  0.37854939  1
